gem5 Simulator System.  http://gem5.org
gem5 is copyrighted software; use the --copyright option for details.

gem5 compiled Dec 21 2017 13:35:48
gem5 started Dec 21 2017 17:37:55
gem5 executing on worker05, pid 230842
command line: ./build/ALPHA/gem5.debug --debug-flag=Progress configs/example/se.py -n 1 --smt --cpu-type=DerivO3CPU -c '../../spec_alpha/gcc/gcc.alpha;../../spec_alpha/gcc/gcc.alpha' '--options=../../spec_alpha/gcc/gcc_input/s04.i -o ../../spec_alpha/gcc/gcc_input/s04.s;../../spec_alpha/gcc/gcc_input/s04.i -o ../../spec_alpha/gcc/gcc_input/s04.s' --caches --l1d_size=32kB --l1i_size=32kB --l2_size=256kB --l3_size=8MB --mem-size=8GB

Global frequency set at 1000000000000 ticks per second
**** REAL SIMULATION ****
74166000: system.cpu: -------------------------------------------------- 
<bad format>74166000: system.cpu: Total Cycles :: 100000 
74166000: system.cpu: Tread 0 :: Base : 6611, L1miss : 64431, Branch : 14563, D1miss : 2780, Wait : 79, Misc : 0, Total : 88464
74166000: system.cpu: Tread 1 :: Base : 7127, L1miss : 67157, Branch : 16430, D1miss : 3400, Wait : 64, Misc : 0, Total : 94178
138371500: system.cpu: -------------------------------------------------- 
<bad format>138371500: system.cpu: Total Cycles :: 200000 
138371500: system.cpu: Tread 0 :: Base : 14720, L1miss : 133543, Branch : 20003, D1miss : 4459, Wait : 306, Misc : 0, Total : 173031
138371500: system.cpu: Tread 1 :: Base : 14319, L1miss : 125524, Branch : 24806, D1miss : 4966, Wait : 303, Misc : 0, Total : 169918
192569000: system.cpu: -------------------------------------------------- 
<bad format>192569000: system.cpu: Total Cycles :: 300000 
192569000: system.cpu: Tread 0 :: Base : 32301, L1miss : 197581, Branch : 44896, D1miss : 6269, Wait : 698, Misc : 0, Total : 281745
192569000: system.cpu: Tread 1 :: Base : 30510, L1miss : 192335, Branch : 45666, D1miss : 6591, Wait : 647, Misc : 0, Total : 275749
243163500: system.cpu: -------------------------------------------------- 
<bad format>243163500: system.cpu: Total Cycles :: 400000 
243163500: system.cpu: Tread 0 :: Base : 58618, L1miss : 254181, Branch : 69750, D1miss : 7071, Wait : 1242, Misc : 0, Total : 390862
243163500: system.cpu: Tread 1 :: Base : 57567, L1miss : 249621, Branch : 71096, D1miss : 7484, Wait : 1208, Misc : 0, Total : 386976
293163500: system.cpu: -------------------------------------------------- 
<bad format>293163500: system.cpu: Total Cycles :: 500000 
293163500: system.cpu: Tread 0 :: Base : 83915, L1miss : 317595, Branch : 85417, D1miss : 8814, Wait : 1478, Misc : 0, Total : 497219
293163500: system.cpu: Tread 1 :: Base : 79523, L1miss : 308528, Branch : 85105, D1miss : 16955, Wait : 1412, Misc : 0, Total : 491523
343163500: system.cpu: -------------------------------------------------- 
<bad format>343163500: system.cpu: Total Cycles :: 600000 
343163500: system.cpu: Tread 0 :: Base : 111061, L1miss : 380482, Branch : 99477, D1miss : 10145, Wait : 1691, Misc : 0, Total : 602856
343163500: system.cpu: Tread 1 :: Base : 103655, L1miss : 367928, Branch : 97571, D1miss : 26176, Wait : 1612, Misc : 0, Total : 596942
393163500: system.cpu: -------------------------------------------------- 
<bad format>393163500: system.cpu: Total Cycles :: 700000 
393163500: system.cpu: Tread 0 :: Base : 137855, L1miss : 445105, Branch : 112361, D1miss : 11116, Wait : 1934, Misc : 0, Total : 708371
393163500: system.cpu: Tread 1 :: Base : 127957, L1miss : 428882, Branch : 109272, D1miss : 34364, Wait : 1836, Misc : 0, Total : 702311
443163500: system.cpu: -------------------------------------------------- 
<bad format>443163500: system.cpu: Total Cycles :: 800000 
443163500: system.cpu: Tread 0 :: Base : 166764, L1miss : 507459, Branch : 124788, D1miss : 12074, Wait : 2166, Misc : 0, Total : 813251
443163500: system.cpu: Tread 1 :: Base : 152154, L1miss : 490288, Branch : 121874, D1miss : 42177, Wait : 2035, Misc : 0, Total : 808528
493163500: system.cpu: -------------------------------------------------- 
<bad format>493163500: system.cpu: Total Cycles :: 900000 
493163500: system.cpu: Tread 0 :: Base : 195659, L1miss : 570401, Branch : 136099, D1miss : 13127, Wait : 2351, Misc : 0, Total : 917637
493163500: system.cpu: Tread 1 :: Base : 178465, L1miss : 550535, Branch : 133841, D1miss : 48209, Wait : 2226, Misc : 0, Total : 913276
543163500: system.cpu: RESET 0 0 0
543163500: system.cpu: RESET 0 0 0
543163500: system.cpu: -------------------------------------------------- 
<bad format>543163500: system.cpu: Total Cycles :: 1000000 
543163500: system.cpu: Tread 0 :: Base : 224590, L1miss : 633523, Branch : 147460, D1miss : 14010, Wait : 2570, Misc : 0, Total : 1022153
543163500: system.cpu: Tread 1 :: Base : 205332, L1miss : 611222, Branch : 144220, D1miss : 54110, Wait : 2428, Misc : 0, Total : 1017312
593163500: system.cpu: -------------------------------------------------- 
<bad format>593163500: system.cpu: Total Cycles :: 1100000 
593163500: system.cpu: Tread 0 :: Base : 249378, L1miss : 698187, Branch : 162250, D1miss : 14719, Wait : 2781, Misc : 0, Total : 1127315
593163500: system.cpu: Tread 1 :: Base : 230402, L1miss : 672354, Branch : 156239, D1miss : 60321, Wait : 2620, Misc : 0, Total : 1121936
644246000: system.cpu: -------------------------------------------------- 
<bad format>644246000: system.cpu: Total Cycles :: 1200000 
644246000: system.cpu: Tread 0 :: Base : 271773, L1miss : 765917, Branch : 172897, D1miss : 18531, Wait : 2918, Misc : 0, Total : 1232036
644246000: system.cpu: Tread 1 :: Base : 251414, L1miss : 738600, Branch : 167560, D1miss : 64105, Wait : 2806, Misc : 0, Total : 1224485
696639000: system.cpu: -------------------------------------------------- 
<bad format>696639000: system.cpu: Total Cycles :: 1300000 
696639000: system.cpu: Tread 0 :: Base : 285906, L1miss : 837088, Branch : 184778, D1miss : 27960, Wait : 3061, Misc : 0, Total : 1338793
696639000: system.cpu: Tread 1 :: Base : 268164, L1miss : 809588, Branch : 177782, D1miss : 67194, Wait : 2978, Misc : 0, Total : 1325706
749390500: system.cpu: -------------------------------------------------- 
<bad format>749390500: system.cpu: Total Cycles :: 1400000 
749390500: system.cpu: Tread 0 :: Base : 302830, L1miss : 910697, Branch : 193843, D1miss : 28784, Wait : 3219, Misc : 0, Total : 1439373
749390500: system.cpu: Tread 1 :: Base : 283906, L1miss : 888567, Branch : 186656, D1miss : 67316, Wait : 3112, Misc : 0, Total : 1429557
801797500: system.cpu: -------------------------------------------------- 
<bad format>801797500: system.cpu: Total Cycles :: 1500000 
801797500: system.cpu: Tread 0 :: Base : 317285, L1miss : 985144, Branch : 203893, D1miss : 34999, Wait : 3357, Misc : 0, Total : 1544678
801797500: system.cpu: Tread 1 :: Base : 300535, L1miss : 962082, Branch : 194443, D1miss : 67929, Wait : 3256, Misc : 0, Total : 1528245
854447000: system.cpu: -------------------------------------------------- 
<bad format>854447000: system.cpu: Total Cycles :: 1600000 
854447000: system.cpu: Tread 0 :: Base : 333316, L1miss : 1058823, Branch : 214354, D1miss : 37353, Wait : 3520, Misc : 0, Total : 1647366
854447000: system.cpu: Tread 1 :: Base : 315149, L1miss : 1037704, Branch : 204737, D1miss : 70492, Wait : 3388, Misc : 0, Total : 1631470
907059500: system.cpu: -------------------------------------------------- 
<bad format>907059500: system.cpu: Total Cycles :: 1700000 
907059500: system.cpu: Tread 0 :: Base : 347889, L1miss : 1128910, Branch : 224621, D1miss : 46058, Wait : 3622, Misc : 0, Total : 1751100
907059500: system.cpu: Tread 1 :: Base : 330910, L1miss : 1112488, Branch : 213386, D1miss : 73423, Wait : 3520, Misc : 0, Total : 1733727
960790500: system.cpu: -------------------------------------------------- 
<bad format>960790500: system.cpu: Total Cycles :: 1800000 
960790500: system.cpu: Tread 0 :: Base : 360484, L1miss : 1202840, Branch : 236752, D1miss : 51156, Wait : 3743, Misc : 0, Total : 1854975
960790500: system.cpu: Tread 1 :: Base : 344855, L1miss : 1182257, Branch : 224817, D1miss : 80710, Wait : 3634, Misc : 0, Total : 1836273
1013310000: system.cpu: -------------------------------------------------- 
<bad format>1013310000: system.cpu: Total Cycles :: 1900000 
1013310000: system.cpu: Tread 0 :: Base : 373774, L1miss : 1268427, Branch : 251234, D1miss : 62629, Wait : 3890, Misc : 0, Total : 1959954
1013310000: system.cpu: Tread 1 :: Base : 357965, L1miss : 1257869, Branch : 237187, D1miss : 84197, Wait : 3790, Misc : 0, Total : 1941008
1065919500: system.cpu: RESET 0 0 0
1065919500: system.cpu: RESET 0 0 0
1065919500: system.cpu: -------------------------------------------------- 
<bad format>1065919500: system.cpu: Total Cycles :: 2000000 
1065919500: system.cpu: Tread 0 :: Base : 389228, L1miss : 1340513, Branch : 263902, D1miss : 64924, Wait : 4002, Misc : 0, Total : 2062569
1065919500: system.cpu: Tread 1 :: Base : 370549, L1miss : 1326170, Branch : 249085, D1miss : 95644, Wait : 3921, Misc : 0, Total : 2045369
1119003500: system.cpu: -------------------------------------------------- 
<bad format>1119003500: system.cpu: Total Cycles :: 2100000 
1119003500: system.cpu: Tread 0 :: Base : 403673, L1miss : 1414704, Branch : 273325, D1miss : 70582, Wait : 4129, Misc : 0, Total : 2166413
1119003500: system.cpu: Tread 1 :: Base : 386231, L1miss : 1401592, Branch : 257487, D1miss : 96925, Wait : 4039, Misc : 0, Total : 2146274
1171646000: system.cpu: -------------------------------------------------- 
<bad format>1171646000: system.cpu: Total Cycles :: 2200000 
1171646000: system.cpu: Tread 0 :: Base : 416477, L1miss : 1487997, Branch : 283813, D1miss : 78806, Wait : 4286, Misc : 0, Total : 2271379
1171646000: system.cpu: Tread 1 :: Base : 401076, L1miss : 1473372, Branch : 267080, D1miss : 102057, Wait : 4160, Misc : 0, Total : 2247745
1224021000: system.cpu: -------------------------------------------------- 
<bad format>1224021000: system.cpu: Total Cycles :: 2300000 
1224021000: system.cpu: Tread 0 :: Base : 429746, L1miss : 1553766, Branch : 301823, D1miss : 90031, Wait : 4422, Misc : 0, Total : 2379788
1224021000: system.cpu: Tread 1 :: Base : 414034, L1miss : 1544047, Branch : 278765, D1miss : 113662, Wait : 4340, Misc : 0, Total : 2354848
1276475000: system.cpu: -------------------------------------------------- 
<bad format>1276475000: system.cpu: Total Cycles :: 2400000 
1276475000: system.cpu: Tread 0 :: Base : 442189, L1miss : 1620504, Branch : 322475, D1miss : 102718, Wait : 4617, Misc : 0, Total : 2492503
1276475000: system.cpu: Tread 1 :: Base : 427827, L1miss : 1611002, Branch : 294138, D1miss : 125251, Wait : 4525, Misc : 0, Total : 2462743
1328777500: system.cpu: -------------------------------------------------- 
<bad format>1328777500: system.cpu: Total Cycles :: 2500000 
1328777500: system.cpu: Tread 0 :: Base : 456542, L1miss : 1687858, Branch : 335227, D1miss : 112920, Wait : 4757, Misc : 0, Total : 2597304
1328777500: system.cpu: Tread 1 :: Base : 440802, L1miss : 1683866, Branch : 307008, D1miss : 133410, Wait : 4664, Misc : 0, Total : 2569750
1381564500: system.cpu: -------------------------------------------------- 
<bad format>1381564500: system.cpu: Total Cycles :: 2600000 
1381564500: system.cpu: Tread 0 :: Base : 471141, L1miss : 1762385, Branch : 343121, D1miss : 117926, Wait : 4871, Misc : 0, Total : 2699444
1381564500: system.cpu: Tread 1 :: Base : 455234, L1miss : 1756839, Branch : 317981, D1miss : 138763, Wait : 4767, Misc : 0, Total : 2673584
1434362000: system.cpu: -------------------------------------------------- 
<bad format>1434362000: system.cpu: Total Cycles :: 2700000 
1434362000: system.cpu: Tread 0 :: Base : 486037, L1miss : 1833872, Branch : 351413, D1miss : 125015, Wait : 4993, Misc : 0, Total : 2801330
1434362000: system.cpu: Tread 1 :: Base : 470015, L1miss : 1834215, Branch : 325856, D1miss : 140932, Wait : 4866, Misc : 0, Total : 2775884
1488094000: system.cpu: -------------------------------------------------- 
<bad format>1488094000: system.cpu: Total Cycles :: 2800000 
1488094000: system.cpu: Tread 0 :: Base : 499716, L1miss : 1913603, Branch : 359976, D1miss : 126840, Wait : 5113, Misc : 0, Total : 2905248
1488094000: system.cpu: Tread 1 :: Base : 486099, L1miss : 1909289, Branch : 333847, D1miss : 143059, Wait : 4973, Misc : 0, Total : 2877267
1541014500: system.cpu: -------------------------------------------------- 
<bad format>1541014500: system.cpu: Total Cycles :: 2900000 
1541014500: system.cpu: Tread 0 :: Base : 513327, L1miss : 1985407, Branch : 368382, D1miss : 136713, Wait : 5225, Misc : 0, Total : 3009054
1541014500: system.cpu: Tread 1 :: Base : 499497, L1miss : 1990362, Branch : 341688, D1miss : 144207, Wait : 5097, Misc : 0, Total : 2980851
1593660000: system.cpu: RESET 0 0 0
1593660000: system.cpu: RESET 0 0 0
1593660000: system.cpu: -------------------------------------------------- 
<bad format>1593660000: system.cpu: Total Cycles :: 3000000 
1593660000: system.cpu: Tread 0 :: Base : 528949, L1miss : 2058443, Branch : 376914, D1miss : 138454, Wait : 5358, Misc : 0, Total : 3108118
1593660000: system.cpu: Tread 1 :: Base : 514025, L1miss : 2065038, Branch : 350380, D1miss : 148716, Wait : 5224, Misc : 0, Total : 3083383
1646798000: system.cpu: -------------------------------------------------- 
<bad format>1646798000: system.cpu: Total Cycles :: 3100000 
1646798000: system.cpu: Tread 0 :: Base : 544302, L1miss : 2132327, Branch : 385620, D1miss : 142968, Wait : 5463, Misc : 0, Total : 3210680
1646798000: system.cpu: Tread 1 :: Base : 529866, L1miss : 2139717, Branch : 357649, D1miss : 151003, Wait : 5332, Misc : 0, Total : 3183567
1699536500: system.cpu: -------------------------------------------------- 
<bad format>1699536500: system.cpu: Total Cycles :: 3200000 
1699536500: system.cpu: Tread 0 :: Base : 557412, L1miss : 2212180, Branch : 394135, D1miss : 145153, Wait : 5577, Misc : 0, Total : 3314457
1699536500: system.cpu: Tread 1 :: Base : 544643, L1miss : 2214728, Branch : 365384, D1miss : 154171, Wait : 5433, Misc : 0, Total : 3284359
1752348500: system.cpu: -------------------------------------------------- 
<bad format>1752348500: system.cpu: Total Cycles :: 3300000 
1752348500: system.cpu: Tread 0 :: Base : 569777, L1miss : 2285664, Branch : 402738, D1miss : 155283, Wait : 5675, Misc : 0, Total : 3419137
1752348500: system.cpu: Tread 1 :: Base : 557585, L1miss : 2294396, Branch : 373238, D1miss : 157608, Wait : 5540, Misc : 0, Total : 3388367
1804327000: system.cpu: -------------------------------------------------- 
<bad format>1804327000: system.cpu: Total Cycles :: 3400000 
1804327000: system.cpu: Tread 0 :: Base : 583039, L1miss : 2358273, Branch : 415627, D1miss : 161173, Wait : 5851, Misc : 0, Total : 3523963
1804327000: system.cpu: Tread 1 :: Base : 571662, L1miss : 2367893, Branch : 382193, D1miss : 164944, Wait : 5749, Misc : 0, Total : 3492441
1856861500: system.cpu: -------------------------------------------------- 
<bad format>1856861500: system.cpu: Total Cycles :: 3500000 
1856861500: system.cpu: Tread 0 :: Base : 596286, L1miss : 2431323, Branch : 429696, D1miss : 167237, Wait : 6014, Misc : 0, Total : 3630556
1856861500: system.cpu: Tread 1 :: Base : 586165, L1miss : 2443547, Branch : 392515, D1miss : 166995, Wait : 5876, Misc : 0, Total : 3595098
1909305500: system.cpu: -------------------------------------------------- 
<bad format>1909305500: system.cpu: Total Cycles :: 3600000 
1909305500: system.cpu: Tread 0 :: Base : 610353, L1miss : 2497862, Branch : 443948, D1miss : 177694, Wait : 6168, Misc : 0, Total : 3736025
1909305500: system.cpu: Tread 1 :: Base : 599268, L1miss : 2515434, Branch : 405594, D1miss : 175031, Wait : 6017, Misc : 0, Total : 3701344
1962479500: system.cpu: -------------------------------------------------- 
<bad format>1962479500: system.cpu: Total Cycles :: 3700000 
1962479500: system.cpu: Tread 0 :: Base : 625776, L1miss : 2571098, Branch : 454290, D1miss : 179649, Wait : 6281, Misc : 0, Total : 3837094
1962479500: system.cpu: Tread 1 :: Base : 614970, L1miss : 2587348, Branch : 414468, D1miss : 179234, Wait : 6135, Misc : 0, Total : 3802155
2015862000: system.cpu: -------------------------------------------------- 
<bad format>2015862000: system.cpu: Total Cycles :: 3800000 
2015862000: system.cpu: Tread 0 :: Base : 640132, L1miss : 2649764, Branch : 463712, D1miss : 180962, Wait : 6383, Misc : 0, Total : 3940953
2015862000: system.cpu: Tread 1 :: Base : 630934, L1miss : 2661928, Branch : 423997, D1miss : 180393, Wait : 6262, Misc : 0, Total : 3903514
2068352000: system.cpu: -------------------------------------------------- 
<bad format>2068352000: system.cpu: Total Cycles :: 3900000 
2068352000: system.cpu: Tread 0 :: Base : 654098, L1miss : 2722814, Branch : 477770, D1miss : 187589, Wait : 6542, Misc : 0, Total : 4048813
2068352000: system.cpu: Tread 1 :: Base : 644520, L1miss : 2742658, Branch : 433268, D1miss : 181314, Wait : 6451, Misc : 0, Total : 4008211
2120687000: system.cpu: RESET 0 0 0
2120687000: system.cpu: RESET 0 0 0
2120687000: system.cpu: -------------------------------------------------- 
<bad format>2120687000: system.cpu: Total Cycles :: 4000000 
2120687000: system.cpu: Tread 0 :: Base : 668749, L1miss : 2800125, Branch : 488961, D1miss : 188462, Wait : 6706, Misc : 0, Total : 4153003
2120687000: system.cpu: Tread 1 :: Base : 659433, L1miss : 2818127, Branch : 444177, D1miss : 182870, Wait : 6598, Misc : 0, Total : 4111205
2173397000: system.cpu: -------------------------------------------------- 
<bad format>2173397000: system.cpu: Total Cycles :: 4100000 
2173397000: system.cpu: Tread 0 :: Base : 683272, L1miss : 2874779, Branch : 502271, D1miss : 192616, Wait : 6868, Misc : 0, Total : 4259806
2173397000: system.cpu: Tread 1 :: Base : 673999, L1miss : 2896207, Branch : 455210, D1miss : 184083, Wait : 6778, Misc : 0, Total : 4216277
2226395000: system.cpu: -------------------------------------------------- 
<bad format>2226395000: system.cpu: Total Cycles :: 4200000 
2226395000: system.cpu: Tread 0 :: Base : 696698, L1miss : 2951366, Branch : 515880, D1miss : 195777, Wait : 7051, Misc : 0, Total : 4366772
2226395000: system.cpu: Tread 1 :: Base : 688872, L1miss : 2973043, Branch : 466980, D1miss : 185146, Wait : 6951, Misc : 0, Total : 4320992
2278790000: system.cpu: -------------------------------------------------- 
<bad format>2278790000: system.cpu: Total Cycles :: 4300000 
2278790000: system.cpu: Tread 0 :: Base : 711706, L1miss : 3020512, Branch : 529378, D1miss : 200023, Wait : 7188, Misc : 0, Total : 4468807
2278790000: system.cpu: Tread 1 :: Base : 703451, L1miss : 3048029, Branch : 477895, D1miss : 188705, Wait : 7092, Misc : 0, Total : 4425172
2331592000: system.cpu: -------------------------------------------------- 
<bad format>2331592000: system.cpu: Total Cycles :: 4400000 
2331592000: system.cpu: Tread 0 :: Base : 726463, L1miss : 3091448, Branch : 538837, D1miss : 209892, Wait : 7305, Misc : 0, Total : 4573945
2331592000: system.cpu: Tread 1 :: Base : 719563, L1miss : 3118535, Branch : 486506, D1miss : 196450, Wait : 7234, Misc : 0, Total : 4528288
2383091500: system.cpu: -------------------------------------------------- 
<bad format>2383091500: system.cpu: Total Cycles :: 4500000 
2383091500: system.cpu: Tread 0 :: Base : 739984, L1miss : 3149636, Branch : 553899, D1miss : 230393, Wait : 7520, Misc : 0, Total : 4681432
2383091500: system.cpu: Tread 1 :: Base : 731285, L1miss : 3178142, Branch : 502050, D1miss : 219447, Wait : 7421, Misc : 0, Total : 4638345
2436459500: system.cpu: -------------------------------------------------- 
<bad format>2436459500: system.cpu: Total Cycles :: 4600000 
2436459500: system.cpu: Tread 0 :: Base : 755785, L1miss : 3219959, Branch : 563545, D1miss : 236908, Wait : 7616, Misc : 0, Total : 4783813
2436459500: system.cpu: Tread 1 :: Base : 747191, L1miss : 3252090, Branch : 510679, D1miss : 222844, Wait : 7517, Misc : 0, Total : 4740321
2488832500: system.cpu: -------------------------------------------------- 
<bad format>2488832500: system.cpu: Total Cycles :: 4700000 
2488832500: system.cpu: Tread 0 :: Base : 769880, L1miss : 3286900, Branch : 573792, D1miss : 251006, Wait : 7821, Misc : 0, Total : 4889399
2488832500: system.cpu: Tread 1 :: Base : 761989, L1miss : 3321615, Branch : 520131, D1miss : 232858, Wait : 7726, Misc : 0, Total : 4844319
2541526500: system.cpu: -------------------------------------------------- 
<bad format>2541526500: system.cpu: Total Cycles :: 4800000 
2541526500: system.cpu: Tread 0 :: Base : 784763, L1miss : 3353379, Branch : 583078, D1miss : 261917, Wait : 7933, Misc : 0, Total : 4991070
2541526500: system.cpu: Tread 1 :: Base : 777194, L1miss : 3393069, Branch : 528632, D1miss : 241562, Wait : 7825, Misc : 0, Total : 4948282
2593649000: system.cpu: -------------------------------------------------- 
<bad format>2593649000: system.cpu: Total Cycles :: 4900000 
2593649000: system.cpu: Tread 0 :: Base : 798660, L1miss : 3418601, Branch : 595761, D1miss : 277344, Wait : 8122, Misc : 0, Total : 5098488
2593649000: system.cpu: Tread 1 :: Base : 791567, L1miss : 3459225, Branch : 541095, D1miss : 255556, Wait : 8035, Misc : 0, Total : 5055478
2645809500: system.cpu: RESET 0 0 0
2645809500: system.cpu: RESET 0 0 0
2645809500: system.cpu: -------------------------------------------------- 
<bad format>2645809500: system.cpu: Total Cycles :: 5000000 
2645809500: system.cpu: Tread 0 :: Base : 813451, L1miss : 3490979, Branch : 607818, D1miss : 282893, Wait : 8300, Misc : 0, Total : 5203441
2645809500: system.cpu: Tread 1 :: Base : 805856, L1miss : 3530005, Branch : 553384, D1miss : 262997, Wait : 8260, Misc : 0, Total : 5160502
2697517000: system.cpu: -------------------------------------------------- 
<bad format>2697517000: system.cpu: Total Cycles :: 5100000 
2697517000: system.cpu: Tread 0 :: Base : 829231, L1miss : 3567204, Branch : 617893, D1miss : 284461, Wait : 8534, Misc : 0, Total : 5307323
2697517000: system.cpu: Tread 1 :: Base : 821993, L1miss : 3605137, Branch : 564160, D1miss : 264556, Wait : 8482, Misc : 0, Total : 5264328
2749166000: system.cpu: -------------------------------------------------- 
<bad format>2749166000: system.cpu: Total Cycles :: 5200000 
2749166000: system.cpu: Tread 0 :: Base : 844475, L1miss : 3642922, Branch : 633167, D1miss : 289620, Wait : 8809, Misc : 0, Total : 5418993
2749166000: system.cpu: Tread 1 :: Base : 838162, L1miss : 3681253, Branch : 575969, D1miss : 268494, Wait : 8804, Misc : 0, Total : 5372682
2800538000: system.cpu: -------------------------------------------------- 
<bad format>2800538000: system.cpu: Total Cycles :: 5300000 
2800538000: system.cpu: Tread 0 :: Base : 860436, L1miss : 3719567, Branch : 645086, D1miss : 293699, Wait : 9131, Misc : 0, Total : 5527919
2800538000: system.cpu: Tread 1 :: Base : 854083, L1miss : 3758198, Branch : 585948, D1miss : 272565, Wait : 9121, Misc : 0, Total : 5479915
2851882000: system.cpu: -------------------------------------------------- 
<bad format>2851882000: system.cpu: Total Cycles :: 5400000 
2851882000: system.cpu: Tread 0 :: Base : 876199, L1miss : 3797165, Branch : 658196, D1miss : 297336, Wait : 9464, Misc : 0, Total : 5638360
2851882000: system.cpu: Tread 1 :: Base : 869914, L1miss : 3836606, Branch : 596032, D1miss : 275405, Wait : 9460, Misc : 0, Total : 5587417
2906308000: system.cpu: -------------------------------------------------- 
<bad format>2906308000: system.cpu: Total Cycles :: 5500000 
2906308000: system.cpu: Tread 0 :: Base : 887728, L1miss : 3867521, Branch : 669587, D1miss : 304005, Wait : 9648, Misc : 0, Total : 5738489
2906308000: system.cpu: Tread 1 :: Base : 884264, L1miss : 3909693, Branch : 604391, D1miss : 283313, Wait : 9661, Misc : 0, Total : 5691322
3002420000: system.cpu: -------------------------------------------------- 
<bad format>3002420000: system.cpu: Total Cycles :: 5600000 
3002420000: system.cpu: Tread 0 :: Base : 893940, L1miss : 3947284, Branch : 678763, D1miss : 304737, Wait : 9683, Misc : 0, Total : 5834407
3002420000: system.cpu: Tread 1 :: Base : 889863, L1miss : 3990600, Branch : 610657, D1miss : 284534, Wait : 9694, Misc : 0, Total : 5785348
3115024500: system.cpu: -------------------------------------------------- 
<bad format>3115024500: system.cpu: Total Cycles :: 5700000 
3115024500: system.cpu: Tread 0 :: Base : 900260, L1miss : 4033611, Branch : 681961, D1miss : 305081, Wait : 9688, Misc : 0, Total : 5930601
3115024500: system.cpu: Tread 1 :: Base : 895056, L1miss : 4078619, Branch : 613123, D1miss : 284922, Wait : 9700, Misc : 0, Total : 5881420
3228612500: system.cpu: -------------------------------------------------- 
<bad format>3228612500: system.cpu: Total Cycles :: 5800000 
3228612500: system.cpu: Tread 0 :: Base : 906226, L1miss : 4116190, Branch : 685005, D1miss : 305540, Wait : 9693, Misc : 0, Total : 6022654
3228612500: system.cpu: Tread 1 :: Base : 900493, L1miss : 4164337, Branch : 615583, D1miss : 285209, Wait : 9707, Misc : 0, Total : 5975329
3339836500: system.cpu: -------------------------------------------------- 
<bad format>3339836500: system.cpu: Total Cycles :: 5900000 
3339836500: system.cpu: Tread 0 :: Base : 913245, L1miss : 4195953, Branch : 688374, D1miss : 306454, Wait : 9702, Misc : 0, Total : 6113728
3339836500: system.cpu: Tread 1 :: Base : 906055, L1miss : 4247419, Branch : 617907, D1miss : 285878, Wait : 9714, Misc : 0, Total : 6066973
3438518500: system.cpu: RESET 0 0 0
3438518500: system.cpu: RESET 0 0 0
3438518500: system.cpu: -------------------------------------------------- 
<bad format>3438518500: system.cpu: Total Cycles :: 6000000 
3438518500: system.cpu: Tread 0 :: Base : 921701, L1miss : 4278222, Branch : 691285, D1miss : 306866, Wait : 9719, Misc : 0, Total : 6207793
3438518500: system.cpu: Tread 1 :: Base : 913268, L1miss : 4331358, Branch : 620133, D1miss : 286166, Wait : 9743, Misc : 0, Total : 6160668
3525032000: system.cpu: -------------------------------------------------- 
<bad format>3525032000: system.cpu: Total Cycles :: 6100000 
3525032000: system.cpu: Tread 0 :: Base : 930371, L1miss : 4362508, Branch : 694841, D1miss : 307659, Wait : 9750, Misc : 0, Total : 6305129
3525032000: system.cpu: Tread 1 :: Base : 921816, L1miss : 4416405, Branch : 624107, D1miss : 287107, Wait : 9765, Misc : 0, Total : 6259200
3605608000: system.cpu: -------------------------------------------------- 
<bad format>3605608000: system.cpu: Total Cycles :: 6200000 
3605608000: system.cpu: Tread 0 :: Base : 940386, L1miss : 4436414, Branch : 706422, D1miss : 310533, Wait : 9816, Misc : 0, Total : 6403571
3605608000: system.cpu: Tread 1 :: Base : 929999, L1miss : 4502162, Branch : 628044, D1miss : 287342, Wait : 9792, Misc : 0, Total : 6357339
3666853000: system.cpu: -------------------------------------------------- 
<bad format>3666853000: system.cpu: Total Cycles :: 6300000 
3666853000: system.cpu: Tread 0 :: Base : 959132, L1miss : 4511402, Branch : 712438, D1miss : 313111, Wait : 9895, Misc : 0, Total : 6505978
3666853000: system.cpu: Tread 1 :: Base : 937908, L1miss : 4586611, Branch : 632351, D1miss : 288091, Wait : 9848, Misc : 0, Total : 6454809
3729646000: system.cpu: -------------------------------------------------- 
<bad format>3729646000: system.cpu: Total Cycles :: 6400000 
3729646000: system.cpu: Tread 0 :: Base : 978210, L1miss : 4582151, Branch : 719081, D1miss : 314640, Wait : 9995, Misc : 0, Total : 6604077
3729646000: system.cpu: Tread 1 :: Base : 955109, L1miss : 4663135, Branch : 636600, D1miss : 288129, Wait : 9917, Misc : 0, Total : 6552890
3787853000: system.cpu: -------------------------------------------------- 
<bad format>3787853000: system.cpu: Total Cycles :: 6500000 
3787853000: system.cpu: Tread 0 :: Base : 988483, L1miss : 4658932, Branch : 729163, D1miss : 316558, Wait : 10089, Misc : 0, Total : 6703225
3787853000: system.cpu: Tread 1 :: Base : 972215, L1miss : 4738111, Branch : 641042, D1miss : 292697, Wait : 9956, Misc : 0, Total : 6654021
3858359000: system.cpu: -------------------------------------------------- 
<bad format>3858359000: system.cpu: Total Cycles :: 6600000 
3858359000: system.cpu: Tread 0 :: Base : 994938, L1miss : 4739229, Branch : 740516, D1miss : 318292, Wait : 10150, Misc : 0, Total : 6803125
3858359000: system.cpu: Tread 1 :: Base : 988677, L1miss : 4808682, Branch : 649100, D1miss : 296116, Wait : 10022, Misc : 0, Total : 6752597
3943745500: system.cpu: -------------------------------------------------- 
<bad format>3943745500: system.cpu: Total Cycles :: 6700000 
3943745500: system.cpu: Tread 0 :: Base : 1002840, L1miss : 4819840, Branch : 748954, D1miss : 321618, Wait : 10185, Misc : 0, Total : 6903437
3943745500: system.cpu: Tread 1 :: Base : 994977, L1miss : 4893210, Branch : 657070, D1miss : 298533, Wait : 10046, Misc : 0, Total : 6853836
4026397000: system.cpu: -------------------------------------------------- 
<bad format>4026397000: system.cpu: Total Cycles :: 6800000 
4026397000: system.cpu: Tread 0 :: Base : 1010403, L1miss : 4900694, Branch : 754068, D1miss : 323889, Wait : 10213, Misc : 0, Total : 6999267
4026397000: system.cpu: Tread 1 :: Base : 1002702, L1miss : 4977187, Branch : 663467, D1miss : 300823, Wait : 10095, Misc : 0, Total : 6954274
4110333000: system.cpu: -------------------------------------------------- 
<bad format>4110333000: system.cpu: Total Cycles :: 6900000 
4110333000: system.cpu: Tread 0 :: Base : 1018209, L1miss : 4980245, Branch : 760177, D1miss : 326532, Wait : 10238, Misc : 0, Total : 7095401
4110333000: system.cpu: Tread 1 :: Base : 1010398, L1miss : 5059941, Branch : 669909, D1miss : 302890, Wait : 10125, Misc : 0, Total : 7053263
4198426000: system.cpu: RESET 0 0 0
4198426000: system.cpu: RESET 0 0 0
4198426000: system.cpu: -------------------------------------------------- 
<bad format>4198426000: system.cpu: Total Cycles :: 7000000 
4198426000: system.cpu: Tread 0 :: Base : 1025820, L1miss : 5064108, Branch : 765049, D1miss : 329775, Wait : 10285, Misc : 0, Total : 7195037
4198426000: system.cpu: Tread 1 :: Base : 1017796, L1miss : 5144119, Branch : 677315, D1miss : 304498, Wait : 10170, Misc : 0, Total : 7153898
4286153000: system.cpu: -------------------------------------------------- 
<bad format>4286153000: system.cpu: Total Cycles :: 7100000 
4286153000: system.cpu: Tread 0 :: Base : 1032696, L1miss : 5144524, Branch : 771834, D1miss : 333069, Wait : 10311, Misc : 0, Total : 7292434
4286153000: system.cpu: Tread 1 :: Base : 1025164, L1miss : 5228863, Branch : 684588, D1miss : 306353, Wait : 10206, Misc : 0, Total : 7255174
4373014500: system.cpu: -------------------------------------------------- 
<bad format>4373014500: system.cpu: Total Cycles :: 7200000 
4373014500: system.cpu: Tread 0 :: Base : 1040458, L1miss : 5226250, Branch : 776590, D1miss : 334949, Wait : 10339, Misc : 0, Total : 7388586
4373014500: system.cpu: Tread 1 :: Base : 1031753, L1miss : 5313352, Branch : 692829, D1miss : 308664, Wait : 10245, Misc : 0, Total : 7356843
4456550500: system.cpu: -------------------------------------------------- 
<bad format>4456550500: system.cpu: Total Cycles :: 7300000 
4456550500: system.cpu: Tread 0 :: Base : 1048294, L1miss : 5311426, Branch : 781813, D1miss : 336702, Wait : 10382, Misc : 0, Total : 7488617
4456550500: system.cpu: Tread 1 :: Base : 1039546, L1miss : 5397359, Branch : 699634, D1miss : 310547, Wait : 10294, Misc : 0, Total : 7457380
4538421000: system.cpu: -------------------------------------------------- 
<bad format>4538421000: system.cpu: Total Cycles :: 7400000 
4538421000: system.cpu: Tread 0 :: Base : 1056184, L1miss : 5392705, Branch : 787476, D1miss : 338614, Wait : 10419, Misc : 0, Total : 7585398
4538421000: system.cpu: Tread 1 :: Base : 1047533, L1miss : 5481474, Branch : 707465, D1miss : 312487, Wait : 10327, Misc : 0, Total : 7559286
4624239500: system.cpu: -------------------------------------------------- 
<bad format>4624239500: system.cpu: Total Cycles :: 7500000 
4624239500: system.cpu: Tread 0 :: Base : 1063222, L1miss : 5471732, Branch : 795230, D1miss : 341028, Wait : 10456, Misc : 0, Total : 7681668
4624239500: system.cpu: Tread 1 :: Base : 1053904, L1miss : 5558497, Branch : 716500, D1miss : 315487, Wait : 10358, Misc : 0, Total : 7654746
4709868500: system.cpu: -------------------------------------------------- 
<bad format>4709868500: system.cpu: Total Cycles :: 7600000 
4709868500: system.cpu: Tread 0 :: Base : 1071556, L1miss : 5551935, Branch : 802383, D1miss : 346003, Wait : 10474, Misc : 0, Total : 7782351
4709868500: system.cpu: Tread 1 :: Base : 1060702, L1miss : 5640248, Branch : 723974, D1miss : 317580, Wait : 10397, Misc : 0, Total : 7752901
4789734000: system.cpu: -------------------------------------------------- 
<bad format>4789734000: system.cpu: Total Cycles :: 7700000 
4789734000: system.cpu: Tread 0 :: Base : 1081640, L1miss : 5632445, Branch : 807173, D1miss : 350589, Wait : 10520, Misc : 0, Total : 7882367
4789734000: system.cpu: Tread 1 :: Base : 1067878, L1miss : 5719690, Branch : 731327, D1miss : 319929, Wait : 10448, Misc : 0, Total : 7849272
4871026000: system.cpu: -------------------------------------------------- 
<bad format>4871026000: system.cpu: Total Cycles :: 7800000 
4871026000: system.cpu: Tread 0 :: Base : 1089032, L1miss : 5713557, Branch : 812523, D1miss : 353035, Wait : 10558, Misc : 0, Total : 7978705
4871026000: system.cpu: Tread 1 :: Base : 1077155, L1miss : 5803344, Branch : 736175, D1miss : 321897, Wait : 10472, Misc : 0, Total : 7949043
4953352000: system.cpu: -------------------------------------------------- 
<bad format>4953352000: system.cpu: Total Cycles :: 7900000 
4953352000: system.cpu: Tread 0 :: Base : 1095595, L1miss : 5794552, Branch : 820257, D1miss : 355746, Wait : 10598, Misc : 0, Total : 8076748
4953352000: system.cpu: Tread 1 :: Base : 1086191, L1miss : 5884131, Branch : 743711, D1miss : 324735, Wait : 10511, Misc : 0, Total : 8049279
5036047000: system.cpu: RESET 0 0 0
5036047000: system.cpu: RESET 0 0 0
5036047000: system.cpu: -------------------------------------------------- 
<bad format>5036047000: system.cpu: Total Cycles :: 8000000 
5036047000: system.cpu: Tread 0 :: Base : 1106285, L1miss : 5875700, Branch : 828793, D1miss : 357228, Wait : 10636, Misc : 0, Total : 8178642
5036047000: system.cpu: Tread 1 :: Base : 1092931, L1miss : 5968974, Branch : 751583, D1miss : 325775, Wait : 10583, Misc : 0, Total : 8149846
5113647000: system.cpu: -------------------------------------------------- 
<bad format>5113647000: system.cpu: Total Cycles :: 8100000 
5113647000: system.cpu: Tread 0 :: Base : 1112645, L1miss : 5954583, Branch : 839856, D1miss : 360470, Wait : 10678, Misc : 0, Total : 8278232
5113647000: system.cpu: Tread 1 :: Base : 1102213, L1miss : 6050879, Branch : 759366, D1miss : 328271, Wait : 10603, Misc : 0, Total : 8251332
5196413000: system.cpu: -------------------------------------------------- 
<bad format>5196413000: system.cpu: Total Cycles :: 8200000 
5196413000: system.cpu: Tread 0 :: Base : 1120705, L1miss : 6034403, Branch : 851365, D1miss : 363498, Wait : 10733, Misc : 0, Total : 8380704
5196413000: system.cpu: Tread 1 :: Base : 1110453, L1miss : 6134235, Branch : 767106, D1miss : 329882, Wait : 10634, Misc : 0, Total : 8352310
5278752500: system.cpu: -------------------------------------------------- 
<bad format>5278752500: system.cpu: Total Cycles :: 8300000 
5278752500: system.cpu: Tread 0 :: Base : 1129074, L1miss : 6110410, Branch : 864871, D1miss : 364555, Wait : 10767, Misc : 0, Total : 8479677
5278752500: system.cpu: Tread 1 :: Base : 1117488, L1miss : 6216946, Branch : 775521, D1miss : 332974, Wait : 10652, Misc : 0, Total : 8453581
5367587000: system.cpu: -------------------------------------------------- 
<bad format>5367587000: system.cpu: Total Cycles :: 8400000 
5367587000: system.cpu: Tread 0 :: Base : 1136563, L1miss : 6189170, Branch : 876022, D1miss : 367516, Wait : 10798, Misc : 0, Total : 8580069
5367587000: system.cpu: Tread 1 :: Base : 1125883, L1miss : 6297805, Branch : 784479, D1miss : 335513, Wait : 10683, Misc : 0, Total : 8554363
5454827000: system.cpu: -------------------------------------------------- 
<bad format>5454827000: system.cpu: Total Cycles :: 8500000 
5454827000: system.cpu: Tread 0 :: Base : 1144720, L1miss : 6268851, Branch : 886155, D1miss : 370903, Wait : 10832, Misc : 0, Total : 8681461
5454827000: system.cpu: Tread 1 :: Base : 1134059, L1miss : 6382941, Branch : 791811, D1miss : 337016, Wait : 10719, Misc : 0, Total : 8656546
5542829500: system.cpu: -------------------------------------------------- 
<bad format>5542829500: system.cpu: Total Cycles :: 8600000 
5542829500: system.cpu: Tread 0 :: Base : 1152977, L1miss : 6350644, Branch : 896149, D1miss : 373386, Wait : 10863, Misc : 0, Total : 8784019
5542829500: system.cpu: Tread 1 :: Base : 1142324, L1miss : 6466035, Branch : 799124, D1miss : 338599, Wait : 10744, Misc : 0, Total : 8756826
5630590500: system.cpu: -------------------------------------------------- 
<bad format>5630590500: system.cpu: Total Cycles :: 8700000 
5630590500: system.cpu: Tread 0 :: Base : 1161208, L1miss : 6429408, Branch : 905954, D1miss : 375763, Wait : 10898, Misc : 0, Total : 8883231
5630590500: system.cpu: Tread 1 :: Base : 1150364, L1miss : 6549492, Branch : 807065, D1miss : 340758, Wait : 10777, Misc : 0, Total : 8858456
5717013500: system.cpu: -------------------------------------------------- 
<bad format>5717013500: system.cpu: Total Cycles :: 8800000 
5717013500: system.cpu: Tread 0 :: Base : 1169724, L1miss : 6509094, Branch : 916399, D1miss : 378293, Wait : 10935, Misc : 0, Total : 8984445
5717013500: system.cpu: Tread 1 :: Base : 1158599, L1miss : 6632886, Branch : 814943, D1miss : 342173, Wait : 10809, Misc : 0, Total : 8959410
5805667500: system.cpu: -------------------------------------------------- 
<bad format>5805667500: system.cpu: Total Cycles :: 8900000 
5805667500: system.cpu: Tread 0 :: Base : 1178526, L1miss : 6588662, Branch : 926605, D1miss : 380845, Wait : 10964, Misc : 0, Total : 9085602
5805667500: system.cpu: Tread 1 :: Base : 1166746, L1miss : 6715144, Branch : 824104, D1miss : 343563, Wait : 10839, Misc : 0, Total : 9060396
5888273500: system.cpu: RESET 0 0 0
5888273500: system.cpu: RESET 0 0 0
5888273500: system.cpu: -------------------------------------------------- 
<bad format>5888273500: system.cpu: Total Cycles :: 9000000 
5888273500: system.cpu: Tread 0 :: Base : 1187036, L1miss : 6668004, Branch : 935640, D1miss : 383118, Wait : 11001, Misc : 0, Total : 9184799
5888273500: system.cpu: Tread 1 :: Base : 1174768, L1miss : 6794925, Branch : 834702, D1miss : 347719, Wait : 10876, Misc : 0, Total : 9162990
5973038500: system.cpu: -------------------------------------------------- 
<bad format>5973038500: system.cpu: Total Cycles :: 9100000 
5973038500: system.cpu: Tread 0 :: Base : 1195312, L1miss : 6747147, Branch : 945195, D1miss : 386187, Wait : 11039, Misc : 0, Total : 9284880
5973038500: system.cpu: Tread 1 :: Base : 1182694, L1miss : 6875890, Branch : 844507, D1miss : 350663, Wait : 10908, Misc : 0, Total : 9264662
6060465500: system.cpu: -------------------------------------------------- 
<bad format>6060465500: system.cpu: Total Cycles :: 9200000 
6060465500: system.cpu: Tread 0 :: Base : 1203613, L1miss : 6829004, Branch : 953362, D1miss : 387808, Wait : 11069, Misc : 0, Total : 9384856
6060465500: system.cpu: Tread 1 :: Base : 1190295, L1miss : 6953314, Branch : 852432, D1miss : 353737, Wait : 10945, Misc : 0, Total : 9360723
6147754000: system.cpu: -------------------------------------------------- 
<bad format>6147754000: system.cpu: Total Cycles :: 9300000 
6147754000: system.cpu: Tread 0 :: Base : 1212844, L1miss : 6908288, Branch : 961628, D1miss : 389308, Wait : 11100, Misc : 0, Total : 9483168
6147754000: system.cpu: Tread 1 :: Base : 1198392, L1miss : 7031409, Branch : 860034, D1miss : 355740, Wait : 10979, Misc : 0, Total : 9456554
6232978500: system.cpu: -------------------------------------------------- 
<bad format>6232978500: system.cpu: Total Cycles :: 9400000 
6232978500: system.cpu: Tread 0 :: Base : 1221086, L1miss : 6985873, Branch : 968372, D1miss : 393820, Wait : 11123, Misc : 0, Total : 9580274
6232978500: system.cpu: Tread 1 :: Base : 1207129, L1miss : 7112219, Branch : 867206, D1miss : 356924, Wait : 11016, Misc : 0, Total : 9554494
6320326500: system.cpu: -------------------------------------------------- 
<bad format>6320326500: system.cpu: Total Cycles :: 9500000 
6320326500: system.cpu: Tread 0 :: Base : 1229969, L1miss : 7069041, Branch : 975170, D1miss : 396261, Wait : 11154, Misc : 0, Total : 9681595
6320326500: system.cpu: Tread 1 :: Base : 1215794, L1miss : 7194540, Branch : 873370, D1miss : 358596, Wait : 11050, Misc : 0, Total : 9653350
6406497000: system.cpu: -------------------------------------------------- 
<bad format>6406497000: system.cpu: Total Cycles :: 9600000 
6406497000: system.cpu: Tread 0 :: Base : 1238949, L1miss : 7150090, Branch : 982210, D1miss : 399207, Wait : 11184, Misc : 0, Total : 9781640
6406497000: system.cpu: Tread 1 :: Base : 1224827, L1miss : 7274209, Branch : 880902, D1miss : 361225, Wait : 11083, Misc : 0, Total : 9752246
6494815500: system.cpu: -------------------------------------------------- 
<bad format>6494815500: system.cpu: Total Cycles :: 9700000 
6494815500: system.cpu: Tread 0 :: Base : 1247534, L1miss : 7233620, Branch : 989178, D1miss : 401240, Wait : 11217, Misc : 0, Total : 9882789
6494815500: system.cpu: Tread 1 :: Base : 1233313, L1miss : 7356331, Branch : 886721, D1miss : 364996, Wait : 11115, Misc : 0, Total : 9852476
6581899000: system.cpu: -------------------------------------------------- 
<bad format>6581899000: system.cpu: Total Cycles :: 9800000 
6581899000: system.cpu: Tread 0 :: Base : 1253906, L1miss : 7314394, Branch : 997431, D1miss : 403525, Wait : 11239, Misc : 0, Total : 9980495
6581899000: system.cpu: Tread 1 :: Base : 1242115, L1miss : 7437109, Branch : 897116, D1miss : 368106, Wait : 11140, Misc : 0, Total : 9955586
6669690000: system.cpu: -------------------------------------------------- 
<bad format>6669690000: system.cpu: Total Cycles :: 9900000 
6669690000: system.cpu: Tread 0 :: Base : 1261749, L1miss : 7396499, Branch : 1004092, D1miss : 405348, Wait : 11265, Misc : 0, Total : 10078953
6669690000: system.cpu: Tread 1 :: Base : 1249829, L1miss : 7518751, Branch : 903257, D1miss : 370024, Wait : 11180, Misc : 0, Total : 10053041
6754602500: system.cpu: RESET 0 0 0
6754602500: system.cpu: RESET 0 0 0
6754602500: system.cpu: -------------------------------------------------- 
<bad format>6754602500: system.cpu: Total Cycles :: 10000000 
6754602500: system.cpu: Tread 0 :: Base : 1269684, L1miss : 7478294, Branch : 1012142, D1miss : 407498, Wait : 11312, Misc : 0, Total : 10178930
6754602500: system.cpu: Tread 1 :: Base : 1257234, L1miss : 7602044, Branch : 909117, D1miss : 372447, Wait : 11212, Misc : 0, Total : 10152054
6841434500: system.cpu: -------------------------------------------------- 
<bad format>6841434500: system.cpu: Total Cycles :: 10100000 
6841434500: system.cpu: Tread 0 :: Base : 1278061, L1miss : 7559667, Branch : 1019290, D1miss : 409978, Wait : 11337, Misc : 0, Total : 10278333
6841434500: system.cpu: Tread 1 :: Base : 1263946, L1miss : 7686903, Branch : 915971, D1miss : 374337, Wait : 11261, Misc : 0, Total : 10252418
6925010500: system.cpu: -------------------------------------------------- 
<bad format>6925010500: system.cpu: Total Cycles :: 10200000 
6925010500: system.cpu: Tread 0 :: Base : 1285814, L1miss : 7641222, Branch : 1025525, D1miss : 413108, Wait : 11378, Misc : 0, Total : 10377047
6925010500: system.cpu: Tread 1 :: Base : 1271681, L1miss : 7768889, Branch : 921877, D1miss : 375925, Wait : 11299, Misc : 0, Total : 10349671
7012594500: system.cpu: -------------------------------------------------- 
<bad format>7012594500: system.cpu: Total Cycles :: 10300000 
7012594500: system.cpu: Tread 0 :: Base : 1292258, L1miss : 7725447, Branch : 1033007, D1miss : 415509, Wait : 11404, Misc : 0, Total : 10477625
7012594500: system.cpu: Tread 1 :: Base : 1280121, L1miss : 7852321, Branch : 928841, D1miss : 377589, Wait : 11330, Misc : 0, Total : 10450202
7096618500: system.cpu: -------------------------------------------------- 
<bad format>7096618500: system.cpu: Total Cycles :: 10400000 
7096618500: system.cpu: Tread 0 :: Base : 1300258, L1miss : 7806188, Branch : 1039624, D1miss : 417895, Wait : 11444, Misc : 0, Total : 10575409
7096618500: system.cpu: Tread 1 :: Base : 1288093, L1miss : 7933987, Branch : 934539, D1miss : 379902, Wait : 11365, Misc : 0, Total : 10547886
7180833000: system.cpu: -------------------------------------------------- 
<bad format>7180833000: system.cpu: Total Cycles :: 10500000 
7180833000: system.cpu: Tread 0 :: Base : 1308273, L1miss : 7886779, Branch : 1046796, D1miss : 420196, Wait : 11493, Misc : 0, Total : 10673537
7180833000: system.cpu: Tread 1 :: Base : 1295550, L1miss : 8017927, Branch : 940354, D1miss : 381561, Wait : 11403, Misc : 0, Total : 10646795
7265064000: system.cpu: -------------------------------------------------- 
<bad format>7265064000: system.cpu: Total Cycles :: 10600000 
7265064000: system.cpu: Tread 0 :: Base : 1316255, L1miss : 7968583, Branch : 1054224, D1miss : 422883, Wait : 11520, Misc : 0, Total : 10773465
7265064000: system.cpu: Tread 1 :: Base : 1301970, L1miss : 8099825, Branch : 947440, D1miss : 384299, Wait : 11429, Misc : 0, Total : 10744963
7345892000: system.cpu: -------------------------------------------------- 
<bad format>7345892000: system.cpu: Total Cycles :: 10700000 
7345892000: system.cpu: Tread 0 :: Base : 1324764, L1miss : 8049289, Branch : 1063213, D1miss : 426978, Wait : 11556, Misc : 0, Total : 10875800
7345892000: system.cpu: Tread 1 :: Base : 1309478, L1miss : 8176589, Branch : 953339, D1miss : 386170, Wait : 11478, Misc : 0, Total : 10837054
7426892000: system.cpu: -------------------------------------------------- 
<bad format>7426892000: system.cpu: Total Cycles :: 10800000 
7426892000: system.cpu: Tread 0 :: Base : 1332483, L1miss : 8130553, Branch : 1073940, D1miss : 429712, Wait : 11591, Misc : 0, Total : 10978279
7426892000: system.cpu: Tread 1 :: Base : 1317531, L1miss : 8259786, Branch : 961128, D1miss : 387771, Wait : 11512, Misc : 0, Total : 10937728
7508352000: system.cpu: -------------------------------------------------- 
<bad format>7508352000: system.cpu: Total Cycles :: 10900000 
7508352000: system.cpu: Tread 0 :: Base : 1340452, L1miss : 8209696, Branch : 1083415, D1miss : 431503, Wait : 11642, Misc : 0, Total : 11076708
7508352000: system.cpu: Tread 1 :: Base : 1325208, L1miss : 8337633, Branch : 970676, D1miss : 391648, Wait : 11551, Misc : 0, Total : 11036716
7593658500: system.cpu: RESET 0 0 0
7593658500: system.cpu: RESET 0 0 0
7593658500: system.cpu: -------------------------------------------------- 
<bad format>7593658500: system.cpu: Total Cycles :: 11000000 
7593658500: system.cpu: Tread 0 :: Base : 1349022, L1miss : 8289070, Branch : 1094616, D1miss : 434313, Wait : 11677, Misc : 0, Total : 11178698
7593658500: system.cpu: Tread 1 :: Base : 1332476, L1miss : 8419518, Branch : 979037, D1miss : 394811, Wait : 11591, Misc : 0, Total : 11137433
7681685500: system.cpu: -------------------------------------------------- 
<bad format>7681685500: system.cpu: Total Cycles :: 11100000 
7681685500: system.cpu: Tread 0 :: Base : 1357749, L1miss : 8367385, Branch : 1103891, D1miss : 435732, Wait : 11701, Misc : 0, Total : 11276458
7681685500: system.cpu: Tread 1 :: Base : 1340530, L1miss : 8497072, Branch : 988651, D1miss : 396101, Wait : 11637, Misc : 0, Total : 11233991
7767509000: system.cpu: -------------------------------------------------- 
<bad format>7767509000: system.cpu: Total Cycles :: 11200000 
7767509000: system.cpu: Tread 0 :: Base : 1365895, L1miss : 8450215, Branch : 1111685, D1miss : 438604, Wait : 11734, Misc : 0, Total : 11378133
7767509000: system.cpu: Tread 1 :: Base : 1348999, L1miss : 8578862, Branch : 998338, D1miss : 398497, Wait : 11664, Misc : 0, Total : 11336360
7853888500: system.cpu: -------------------------------------------------- 
<bad format>7853888500: system.cpu: Total Cycles :: 11300000 
7853888500: system.cpu: Tread 0 :: Base : 1374418, L1miss : 8532855, Branch : 1119967, D1miss : 440598, Wait : 11761, Misc : 0, Total : 11479599
7853888500: system.cpu: Tread 1 :: Base : 1357313, L1miss : 8659556, Branch : 1007621, D1miss : 400411, Wait : 11695, Misc : 0, Total : 11436596
7942181000: system.cpu: -------------------------------------------------- 
<bad format>7942181000: system.cpu: Total Cycles :: 11400000 
7942181000: system.cpu: Tread 0 :: Base : 1382640, L1miss : 8615340, Branch : 1126075, D1miss : 442302, Wait : 11794, Misc : 0, Total : 11578151
7942181000: system.cpu: Tread 1 :: Base : 1365912, L1miss : 8741382, Branch : 1017238, D1miss : 401786, Wait : 11728, Misc : 0, Total : 11538046
8027450500: system.cpu: -------------------------------------------------- 
<bad format>8027450500: system.cpu: Total Cycles :: 11500000 
8027450500: system.cpu: Tread 0 :: Base : 1391073, L1miss : 8694603, Branch : 1134905, D1miss : 446045, Wait : 11830, Misc : 0, Total : 11678456
8027450500: system.cpu: Tread 1 :: Base : 1373932, L1miss : 8821086, Branch : 1026379, D1miss : 405296, Wait : 11766, Misc : 0, Total : 11638459
8114603000: system.cpu: -------------------------------------------------- 
<bad format>8114603000: system.cpu: Total Cycles :: 11600000 
8114603000: system.cpu: Tread 0 :: Base : 1399316, L1miss : 8773121, Branch : 1143464, D1miss : 448821, Wait : 11866, Misc : 0, Total : 11776588
8114603000: system.cpu: Tread 1 :: Base : 1381913, L1miss : 8899680, Branch : 1036332, D1miss : 407973, Wait : 11799, Misc : 0, Total : 11737697
8183287000: system.cpu: -------------------------------------------------- 
<bad format>8183287000: system.cpu: Total Cycles :: 11700000 
8183287000: system.cpu: Tread 0 :: Base : 1409834, L1miss : 8847810, Branch : 1154571, D1miss : 455198, Wait : 11925, Misc : 0, Total : 11879338
8183287000: system.cpu: Tread 1 :: Base : 1390591, L1miss : 8979788, Branch : 1045397, D1miss : 409177, Wait : 11901, Misc : 0, Total : 11836854
8245531000: system.cpu: -------------------------------------------------- 
<bad format>8245531000: system.cpu: Total Cycles :: 11800000 
8245531000: system.cpu: Tread 0 :: Base : 1417139, L1miss : 8916360, Branch : 1164919, D1miss : 459039, Wait : 11981, Misc : 0, Total : 11969438
8245531000: system.cpu: Tread 1 :: Base : 1401091, L1miss : 9055694, Branch : 1055667, D1miss : 412035, Wait : 11995, Misc : 0, Total : 11936482
8306407500: system.cpu: -------------------------------------------------- 
<bad format>8306407500: system.cpu: Total Cycles :: 11900000 
8306407500: system.cpu: Tread 0 :: Base : 1425169, L1miss : 8991405, Branch : 1173635, D1miss : 462798, Wait : 12036, Misc : 0, Total : 12065043
8306407500: system.cpu: Tread 1 :: Base : 1410218, L1miss : 9128115, Branch : 1067836, D1miss : 420085, Wait : 12065, Misc : 0, Total : 12038319
8369752500: system.cpu: RESET 0 0 0
8369752500: system.cpu: RESET 0 0 0
8369752500: system.cpu: -------------------------------------------------- 
<bad format>8369752500: system.cpu: Total Cycles :: 12000000 
8369752500: system.cpu: Tread 0 :: Base : 1434067, L1miss : 9067784, Branch : 1186819, D1miss : 466778, Wait : 12125, Misc : 0, Total : 12167573
8369752500: system.cpu: Tread 1 :: Base : 1415753, L1miss : 9195843, Branch : 1079092, D1miss : 421433, Wait : 12116, Misc : 0, Total : 12124237
8452692000: system.cpu: -------------------------------------------------- 
<bad format>8452692000: system.cpu: Total Cycles :: 12100000 
8452692000: system.cpu: Tread 0 :: Base : 1439224, L1miss : 9149965, Branch : 1195185, D1miss : 467877, Wait : 12167, Misc : 0, Total : 12264418
8452692000: system.cpu: Tread 1 :: Base : 1426253, L1miss : 9275638, Branch : 1085894, D1miss : 422618, Wait : 12139, Misc : 0, Total : 12222542
8536468000: system.cpu: -------------------------------------------------- 
<bad format>8536468000: system.cpu: Total Cycles :: 12200000 
8536468000: system.cpu: Tread 0 :: Base : 1444286, L1miss : 9235482, Branch : 1202594, D1miss : 468956, Wait : 12205, Misc : 0, Total : 12363523
8536468000: system.cpu: Tread 1 :: Base : 1435037, L1miss : 9355454, Branch : 1095050, D1miss : 425646, Wait : 12166, Misc : 0, Total : 12323353
8636325000: system.cpu: -------------------------------------------------- 
<bad format>8636325000: system.cpu: Total Cycles :: 12300000 
8636325000: system.cpu: Tread 0 :: Base : 1450030, L1miss : 9320023, Branch : 1208129, D1miss : 469830, Wait : 12231, Misc : 0, Total : 12460243
8636325000: system.cpu: Tread 1 :: Base : 1441715, L1miss : 9437087, Branch : 1100890, D1miss : 426246, Wait : 12186, Misc : 0, Total : 12418124
8738156500: system.cpu: -------------------------------------------------- 
<bad format>8738156500: system.cpu: Total Cycles :: 12400000 
8738156500: system.cpu: Tread 0 :: Base : 1456683, L1miss : 9407406, Branch : 1212433, D1miss : 471221, Wait : 12264, Misc : 0, Total : 12560007
8738156500: system.cpu: Tread 1 :: Base : 1447830, L1miss : 9518801, Branch : 1105759, D1miss : 426724, Wait : 12212, Misc : 0, Total : 12511326
8839734000: system.cpu: -------------------------------------------------- 
<bad format>8839734000: system.cpu: Total Cycles :: 12500000 
8839734000: system.cpu: Tread 0 :: Base : 1462655, L1miss : 9490856, Branch : 1216612, D1miss : 471584, Wait : 12276, Misc : 0, Total : 12653983
8839734000: system.cpu: Tread 1 :: Base : 1453941, L1miss : 9602140, Branch : 1109497, D1miss : 428147, Wait : 12220, Misc : 0, Total : 12605945
8944693500: system.cpu: -------------------------------------------------- 
<bad format>8944693500: system.cpu: Total Cycles :: 12600000 
8944693500: system.cpu: Tread 0 :: Base : 1468076, L1miss : 9576297, Branch : 1219298, D1miss : 472140, Wait : 12292, Misc : 0, Total : 12748103
8944693500: system.cpu: Tread 1 :: Base : 1460104, L1miss : 9686151, Branch : 1112548, D1miss : 428607, Wait : 12235, Misc : 0, Total : 12699645
9046183000: system.cpu: -------------------------------------------------- 
<bad format>9046183000: system.cpu: Total Cycles :: 12700000 
9046183000: system.cpu: Tread 0 :: Base : 1473723, L1miss : 9660296, Branch : 1222540, D1miss : 473112, Wait : 12307, Misc : 0, Total : 12841978
9046183000: system.cpu: Tread 1 :: Base : 1466622, L1miss : 9772871, Branch : 1116760, D1miss : 429488, Wait : 12246, Misc : 0, Total : 12797987
9148350500: system.cpu: -------------------------------------------------- 
<bad format>9148350500: system.cpu: Total Cycles :: 12800000 
9148350500: system.cpu: Tread 0 :: Base : 1480181, L1miss : 9736104, Branch : 1226082, D1miss : 474336, Wait : 12326, Misc : 0, Total : 12929029
9148350500: system.cpu: Tread 1 :: Base : 1472621, L1miss : 9856087, Branch : 1120756, D1miss : 430901, Wait : 12265, Misc : 0, Total : 12892630
9251836000: system.cpu: -------------------------------------------------- 
<bad format>9251836000: system.cpu: Total Cycles :: 12900000 
9251836000: system.cpu: Tread 0 :: Base : 1486211, L1miss : 9821690, Branch : 1229025, D1miss : 474749, Wait : 12342, Misc : 0, Total : 13024017
9251836000: system.cpu: Tread 1 :: Base : 1478365, L1miss : 9938576, Branch : 1123990, D1miss : 432342, Wait : 12284, Misc : 0, Total : 12985557
9353286500: system.cpu: RESET 0 0 0
9353286500: system.cpu: RESET 0 0 0
9353286500: system.cpu: -------------------------------------------------- 
<bad format>9353286500: system.cpu: Total Cycles :: 13000000 
9353286500: system.cpu: Tread 0 :: Base : 1491519, L1miss : 9905003, Branch : 1232283, D1miss : 475176, Wait : 12357, Misc : 0, Total : 13116338
9353286500: system.cpu: Tread 1 :: Base : 1484717, L1miss : 10026035, Branch : 1127520, D1miss : 433370, Wait : 12301, Misc : 0, Total : 13083943
9448390500: system.cpu: -------------------------------------------------- 
<bad format>9448390500: system.cpu: Total Cycles :: 13100000 
9448390500: system.cpu: Tread 0 :: Base : 1498839, L1miss : 9985896, Branch : 1239586, D1miss : 476786, Wait : 12383, Misc : 0, Total : 13213490
9448390500: system.cpu: Tread 1 :: Base : 1490217, L1miss : 10109091, Branch : 1130998, D1miss : 434231, Wait : 12322, Misc : 0, Total : 13176859
9530974000: system.cpu: -------------------------------------------------- 
<bad format>9530974000: system.cpu: Total Cycles :: 13200000 
9530974000: system.cpu: Tread 0 :: Base : 1507209, L1miss : 10055751, Branch : 1246125, D1miss : 477213, Wait : 12403, Misc : 0, Total : 13298701
9530974000: system.cpu: Tread 1 :: Base : 1495398, L1miss : 10192954, Branch : 1135516, D1miss : 435856, Wait : 12351, Misc : 0, Total : 13272075
9615968000: system.cpu: -------------------------------------------------- 
<bad format>9615968000: system.cpu: Total Cycles :: 13300000 
9615968000: system.cpu: Tread 0 :: Base : 1514488, L1miss : 10127965, Branch : 1251110, D1miss : 478736, Wait : 12428, Misc : 0, Total : 13384727
9615968000: system.cpu: Tread 1 :: Base : 1501014, L1miss : 10274518, Branch : 1142914, D1miss : 436858, Wait : 12379, Misc : 0, Total : 13367683
9688151500: system.cpu: -------------------------------------------------- 
<bad format>9688151500: system.cpu: Total Cycles :: 13400000 
9688151500: system.cpu: Tread 0 :: Base : 1521769, L1miss : 10203655, Branch : 1259505, D1miss : 481040, Wait : 12474, Misc : 0, Total : 13478443
9688151500: system.cpu: Tread 1 :: Base : 1508034, L1miss : 10350833, Branch : 1149789, D1miss : 437858, Wait : 12446, Misc : 0, Total : 13458960
9764606000: system.cpu: -------------------------------------------------- 
<bad format>9764606000: system.cpu: Total Cycles :: 13500000 
9764606000: system.cpu: Tread 0 :: Base : 1529736, L1miss : 10292192, Branch : 1262094, D1miss : 483711, Wait : 12503, Misc : 0, Total : 13580236
9764606000: system.cpu: Tread 1 :: Base : 1514604, L1miss : 10429192, Branch : 1154249, D1miss : 439691, Wait : 12498, Misc : 0, Total : 13550234
9841760000: system.cpu: -------------------------------------------------- 
<bad format>9841760000: system.cpu: Total Cycles :: 13600000 
9841760000: system.cpu: Tread 0 :: Base : 1536719, L1miss : 10374848, Branch : 1269540, D1miss : 489791, Wait : 12542, Misc : 0, Total : 13683440
9841760000: system.cpu: Tread 1 :: Base : 1520889, L1miss : 10500552, Branch : 1163157, D1miss : 442926, Wait : 12538, Misc : 0, Total : 13640062
9941361000: system.cpu: -------------------------------------------------- 
<bad format>9941361000: system.cpu: Total Cycles :: 13700000 
9941361000: system.cpu: Tread 0 :: Base : 1541570, L1miss : 10461833, Branch : 1273719, D1miss : 494805, Wait : 12550, Misc : 0, Total : 13784477
9941361000: system.cpu: Tread 1 :: Base : 1526414, L1miss : 10583175, Branch : 1169419, D1miss : 448574, Wait : 12546, Misc : 0, Total : 13740128
10044482500: system.cpu: -------------------------------------------------- 
<bad format>10044482500: system.cpu: Total Cycles :: 13800000 
10044482500: system.cpu: Tread 0 :: Base : 1546682, L1miss : 10549368, Branch : 1277487, D1miss : 500936, Wait : 12557, Misc : 0, Total : 13887030
10044482500: system.cpu: Tread 1 :: Base : 1531119, L1miss : 10669252, Branch : 1173961, D1miss : 454900, Wait : 12556, Misc : 0, Total : 13841788
10146573000: system.cpu: -------------------------------------------------- 
<bad format>10146573000: system.cpu: Total Cycles :: 13900000 
10146573000: system.cpu: Tread 0 :: Base : 1551535, L1miss : 10636592, Branch : 1280165, D1miss : 505589, Wait : 12568, Misc : 0, Total : 13986449
10146573000: system.cpu: Tread 1 :: Base : 1536213, L1miss : 10753812, Branch : 1180505, D1miss : 460289, Wait : 12565, Misc : 0, Total : 13943384
10248466000: system.cpu: RESET 0 0 0
10248466000: system.cpu: RESET 0 0 0
10248466000: system.cpu: -------------------------------------------------- 
<bad format>10248466000: system.cpu: Total Cycles :: 14000000 
10248466000: system.cpu: Tread 0 :: Base : 1556588, L1miss : 10724619, Branch : 1283698, D1miss : 511061, Wait : 12586, Misc : 0, Total : 14088552
10248466000: system.cpu: Tread 1 :: Base : 1541016, L1miss : 10839787, Branch : 1186345, D1miss : 465295, Wait : 12574, Misc : 0, Total : 14045017
10348335000: system.cpu: -------------------------------------------------- 
<bad format>10348335000: system.cpu: Total Cycles :: 14100000 
10348335000: system.cpu: Tread 0 :: Base : 1561115, L1miss : 10811351, Branch : 1288190, D1miss : 517334, Wait : 12592, Misc : 0, Total : 14190582
10348335000: system.cpu: Tread 1 :: Base : 1546076, L1miss : 10926253, Branch : 1189966, D1miss : 469927, Wait : 12583, Misc : 0, Total : 14144805
10452122500: system.cpu: -------------------------------------------------- 
<bad format>10452122500: system.cpu: Total Cycles :: 14200000 
10452122500: system.cpu: Tread 0 :: Base : 1565905, L1miss : 10900852, Branch : 1290925, D1miss : 521358, Wait : 12603, Misc : 0, Total : 14291643
10452122500: system.cpu: Tread 1 :: Base : 1551014, L1miss : 11014316, Branch : 1193594, D1miss : 473710, Wait : 12590, Misc : 0, Total : 14245224
10559954500: system.cpu: -------------------------------------------------- 
<bad format>10559954500: system.cpu: Total Cycles :: 14300000 
10559954500: system.cpu: Tread 0 :: Base : 1570828, L1miss : 10987140, Branch : 1293088, D1miss : 527163, Wait : 12612, Misc : 0, Total : 14390831
10559954500: system.cpu: Tread 1 :: Base : 1555728, L1miss : 11097886, Branch : 1199156, D1miss : 479878, Wait : 12607, Misc : 0, Total : 14345255
10645172000: system.cpu: -------------------------------------------------- 
<bad format>10645172000: system.cpu: Total Cycles :: 14400000 
10645172000: system.cpu: Tread 0 :: Base : 1575295, L1miss : 11071051, Branch : 1300770, D1miss : 528484, Wait : 12644, Misc : 0, Total : 14488244
10645172000: system.cpu: Tread 1 :: Base : 1564336, L1miss : 11180032, Branch : 1204488, D1miss : 481186, Wait : 12624, Misc : 0, Total : 14442666
10723695500: system.cpu: -------------------------------------------------- 
<bad format>10723695500: system.cpu: Total Cycles :: 14500000 
10723695500: system.cpu: Tread 0 :: Base : 1584021, L1miss : 11141310, Branch : 1307514, D1miss : 530488, Wait : 12685, Misc : 0, Total : 14576018
10723695500: system.cpu: Tread 1 :: Base : 1570636, L1miss : 11269228, Branch : 1207811, D1miss : 482106, Wait : 12655, Misc : 0, Total : 14542436
10802173500: system.cpu: -------------------------------------------------- 
<bad format>10802173500: system.cpu: Total Cycles :: 14600000 
10802173500: system.cpu: Tread 0 :: Base : 1592108, L1miss : 11211893, Branch : 1313512, D1miss : 531719, Wait : 12719, Misc : 0, Total : 14661951
10802173500: system.cpu: Tread 1 :: Base : 1575557, L1miss : 11354443, Branch : 1214533, D1miss : 484150, Wait : 12692, Misc : 0, Total : 14641375
10883532000: system.cpu: -------------------------------------------------- 
<bad format>10883532000: system.cpu: Total Cycles :: 14700000 
10883532000: system.cpu: Tread 0 :: Base : 1598013, L1miss : 11287436, Branch : 1318322, D1miss : 533238, Wait : 12747, Misc : 0, Total : 14749756
10883532000: system.cpu: Tread 1 :: Base : 1582396, L1miss : 11429706, Branch : 1219023, D1miss : 485848, Wait : 12721, Misc : 0, Total : 14729694
10956532000: system.cpu: -------------------------------------------------- 
<bad format>10956532000: system.cpu: Total Cycles :: 14800000 
10956532000: system.cpu: Tread 0 :: Base : 1604985, L1miss : 11372304, Branch : 1322601, D1miss : 535249, Wait : 12796, Misc : 0, Total : 14847935
10956532000: system.cpu: Tread 1 :: Base : 1589881, L1miss : 11501656, Branch : 1224241, D1miss : 486652, Wait : 12774, Misc : 0, Total : 14815204
11027718000: system.cpu: -------------------------------------------------- 
<bad format>11027718000: system.cpu: Total Cycles :: 14900000 
11027718000: system.cpu: Tread 0 :: Base : 1615255, L1miss : 11458524, Branch : 1325859, D1miss : 536951, Wait : 12831, Misc : 0, Total : 14949420
11027718000: system.cpu: Tread 1 :: Base : 1595776, L1miss : 11582080, Branch : 1229679, D1miss : 487247, Wait : 12835, Misc : 0, Total : 14907617
11127150000: system.cpu: RESET 0 0 0
11127150000: system.cpu: RESET 0 0 0
11127150000: system.cpu: -------------------------------------------------- 
<bad format>11127150000: system.cpu: Total Cycles :: 15000000 
11127150000: system.cpu: Tread 0 :: Base : 1621723, L1miss : 11546582, Branch : 1328759, D1miss : 538614, Wait : 12851, Misc : 0, Total : 15048529
11127150000: system.cpu: Tread 1 :: Base : 1600860, L1miss : 11665587, Branch : 1234824, D1miss : 488809, Wait : 12852, Misc : 0, Total : 15002932
11242651500: system.cpu: -------------------------------------------------- 
<bad format>11242651500: system.cpu: Total Cycles :: 15100000 
11242651500: system.cpu: Tread 0 :: Base : 1627553, L1miss : 11634527, Branch : 1332237, D1miss : 541011, Wait : 12865, Misc : 0, Total : 15148193
11242651500: system.cpu: Tread 1 :: Base : 1605960, L1miss : 11752091, Branch : 1239440, D1miss : 490768, Wait : 12864, Misc : 0, Total : 15101123
11346057000: system.cpu: -------------------------------------------------- 
<bad format>11346057000: system.cpu: Total Cycles :: 15200000 
11346057000: system.cpu: Tread 0 :: Base : 1633119, L1miss : 11718429, Branch : 1338567, D1miss : 547395, Wait : 12877, Misc : 0, Total : 15250387
11346057000: system.cpu: Tread 1 :: Base : 1611210, L1miss : 11839502, Branch : 1244840, D1miss : 493705, Wait : 12875, Misc : 0, Total : 15202132
11438493500: system.cpu: -------------------------------------------------- 
<bad format>11438493500: system.cpu: Total Cycles :: 15300000 
11438493500: system.cpu: Tread 0 :: Base : 1638354, L1miss : 11800602, Branch : 1350175, D1miss : 550972, Wait : 12898, Misc : 0, Total : 15353001
11438493500: system.cpu: Tread 1 :: Base : 1617870, L1miss : 11920130, Branch : 1251293, D1miss : 496618, Wait : 12886, Misc : 0, Total : 15298797
11526028500: system.cpu: -------------------------------------------------- 
<bad format>11526028500: system.cpu: Total Cycles :: 15400000 
11526028500: system.cpu: Tread 0 :: Base : 1643908, L1miss : 11884859, Branch : 1358578, D1miss : 553432, Wait : 12921, Misc : 0, Total : 15453698
11526028500: system.cpu: Tread 1 :: Base : 1624445, L1miss : 12005080, Branch : 1257464, D1miss : 500184, Wait : 12900, Misc : 0, Total : 15400073
11626891000: system.cpu: -------------------------------------------------- 
<bad format>11626891000: system.cpu: Total Cycles :: 15500000 
11626891000: system.cpu: Tread 0 :: Base : 1648480, L1miss : 11972160, Branch : 1362999, D1miss : 556399, Wait : 12932, Misc : 0, Total : 15552970
11626891000: system.cpu: Tread 1 :: Base : 1630506, L1miss : 12092623, Branch : 1260092, D1miss : 503077, Wait : 12907, Misc : 0, Total : 15499205
11706221500: system.cpu: -------------------------------------------------- 
<bad format>11706221500: system.cpu: Total Cycles :: 15600000 
11706221500: system.cpu: Tread 0 :: Base : 1655246, L1miss : 12052455, Branch : 1371604, D1miss : 558547, Wait : 12958, Misc : 0, Total : 15650810
11706221500: system.cpu: Tread 1 :: Base : 1635767, L1miss : 12175079, Branch : 1269366, D1miss : 506985, Wait : 12929, Misc : 0, Total : 15600126
11774622000: system.cpu: -------------------------------------------------- 
<bad format>11774622000: system.cpu: Total Cycles :: 15700000 
11774622000: system.cpu: Tread 0 :: Base : 1664721, L1miss : 12136199, Branch : 1380486, D1miss : 558836, Wait : 13018, Misc : 0, Total : 15753260
11774622000: system.cpu: Tread 1 :: Base : 1643772, L1miss : 12248861, Branch : 1279203, D1miss : 511397, Wait : 13036, Misc : 0, Total : 15696269
11824639500: system.cpu: -------------------------------------------------- 
<bad format>11824639500: system.cpu: Total Cycles :: 15800000 
11824639500: system.cpu: Tread 0 :: Base : 1680221, L1miss : 12229169, Branch : 1382115, D1miss : 558836, Wait : 13131, Misc : 0, Total : 15863472
11824639500: system.cpu: Tread 1 :: Base : 1653321, L1miss : 12328906, Branch : 1287753, D1miss : 513202, Wait : 13301, Misc : 0, Total : 15796483
11874692000: system.cpu: -------------------------------------------------- 
<bad format>11874692000: system.cpu: Total Cycles :: 15900000 
11874692000: system.cpu: Tread 0 :: Base : 1695583, L1miss : 12321518, Branch : 1383795, D1miss : 558836, Wait : 13189, Misc : 0, Total : 15972921
11874692000: system.cpu: Tread 1 :: Base : 1658432, L1miss : 12406860, Branch : 1298992, D1miss : 514013, Wait : 13478, Misc : 0, Total : 15891775
11924692000: system.cpu: RESET 0 0 0
11924692000: system.cpu: RESET 0 0 0
11924692000: system.cpu: -------------------------------------------------- 
<bad format>11924692000: system.cpu: Total Cycles :: 16000000 
11924692000: system.cpu: Tread 0 :: Base : 1707457, L1miss : 12410076, Branch : 1388499, D1miss : 558836, Wait : 13544, Misc : 0, Total : 16078412
11924692000: system.cpu: Tread 1 :: Base : 1673066, L1miss : 12498035, Branch : 1300450, D1miss : 514013, Wait : 13727, Misc : 0, Total : 15999291
11974692000: system.cpu: -------------------------------------------------- 
<bad format>11974692000: system.cpu: Total Cycles :: 16100000 
11974692000: system.cpu: Tread 0 :: Base : 1718725, L1miss : 12487686, Branch : 1397156, D1miss : 560700, Wait : 13937, Misc : 0, Total : 16178204
11974692000: system.cpu: Tread 1 :: Base : 1688054, L1miss : 12590044, Branch : 1302084, D1miss : 514013, Wait : 13851, Misc : 0, Total : 16108046
12025539000: system.cpu: -------------------------------------------------- 
<bad format>12025539000: system.cpu: Total Cycles :: 16200000 
12025539000: system.cpu: Tread 0 :: Base : 1725774, L1miss : 12560082, Branch : 1402152, D1miss : 561594, Wait : 14169, Misc : 0, Total : 16263771
12025539000: system.cpu: Tread 1 :: Base : 1702420, L1miss : 12679314, Branch : 1304351, D1miss : 514191, Wait : 13926, Misc : 0, Total : 16214202
12081729000: system.cpu: -------------------------------------------------- 
<bad format>12081729000: system.cpu: Total Cycles :: 16300000 
12081729000: system.cpu: Tread 0 :: Base : 1732356, L1miss : 12634491, Branch : 1406603, D1miss : 563012, Wait : 14317, Misc : 0, Total : 16350779
12081729000: system.cpu: Tread 1 :: Base : 1713049, L1miss : 12764743, Branch : 1309243, D1miss : 514749, Wait : 13992, Misc : 0, Total : 16315776
12162234000: system.cpu: -------------------------------------------------- 
<bad format>12162234000: system.cpu: Total Cycles :: 16400000 
12162234000: system.cpu: Tread 0 :: Base : 1737019, L1miss : 12709295, Branch : 1409530, D1miss : 564457, Wait : 14354, Misc : 0, Total : 16434655
12162234000: system.cpu: Tread 1 :: Base : 1722601, L1miss : 12832814, Branch : 1314003, D1miss : 518283, Wait : 14033, Misc : 0, Total : 16401734
12259283500: system.cpu: -------------------------------------------------- 
<bad format>12259283500: system.cpu: Total Cycles :: 16500000 
12259283500: system.cpu: Tread 0 :: Base : 1741906, L1miss : 12779818, Branch : 1410457, D1miss : 566263, Wait : 14374, Misc : 0, Total : 16512818
12259283500: system.cpu: Tread 1 :: Base : 1727672, L1miss : 12895859, Branch : 1315337, D1miss : 520506, Wait : 14050, Misc : 0, Total : 16473424
12354491500: system.cpu: -------------------------------------------------- 
<bad format>12354491500: system.cpu: Total Cycles :: 16600000 
12354491500: system.cpu: Tread 0 :: Base : 1746826, L1miss : 12852362, Branch : 1412732, D1miss : 568151, Wait : 14390, Misc : 0, Total : 16594461
12354491500: system.cpu: Tread 1 :: Base : 1732126, L1miss : 12960918, Branch : 1319055, D1miss : 522333, Wait : 14064, Misc : 0, Total : 16548496
12455245500: system.cpu: -------------------------------------------------- 
<bad format>12455245500: system.cpu: Total Cycles :: 16700000 
12455245500: system.cpu: Tread 0 :: Base : 1751746, L1miss : 12922178, Branch : 1413796, D1miss : 569960, Wait : 14405, Misc : 0, Total : 16672085
12455245500: system.cpu: Tread 1 :: Base : 1736982, L1miss : 13032010, Branch : 1319875, D1miss : 524548, Wait : 14077, Misc : 0, Total : 16627492
12553095000: system.cpu: -------------------------------------------------- 
<bad format>12553095000: system.cpu: Total Cycles :: 16800000 
12553095000: system.cpu: Tread 0 :: Base : 1756620, L1miss : 12989154, Branch : 1414635, D1miss : 572390, Wait : 14427, Misc : 0, Total : 16747226
12553095000: system.cpu: Tread 1 :: Base : 1741697, L1miss : 13101337, Branch : 1320882, D1miss : 526505, Wait : 14101, Misc : 0, Total : 16704522
12654474000: system.cpu: -------------------------------------------------- 
<bad format>12654474000: system.cpu: Total Cycles :: 16900000 
12654474000: system.cpu: Tread 0 :: Base : 1761805, L1miss : 13053450, Branch : 1415682, D1miss : 574519, Wait : 14444, Misc : 0, Total : 16819900
12654474000: system.cpu: Tread 1 :: Base : 1747041, L1miss : 13173775, Branch : 1323687, D1miss : 528979, Wait : 14128, Misc : 0, Total : 16787610
12755546500: system.cpu: RESET 0 0 0
12755546500: system.cpu: RESET 0 0 0
12755546500: system.cpu: -------------------------------------------------- 
<bad format>12755546500: system.cpu: Total Cycles :: 17000000 
12755546500: system.cpu: Tread 0 :: Base : 1766908, L1miss : 13120683, Branch : 1419546, D1miss : 575529, Wait : 14467, Misc : 0, Total : 16897133
12755546500: system.cpu: Tread 1 :: Base : 1752543, L1miss : 13248017, Branch : 1325485, D1miss : 530698, Wait : 14144, Misc : 0, Total : 16870887
12846775500: system.cpu: -------------------------------------------------- 
<bad format>12846775500: system.cpu: Total Cycles :: 17100000 
12846775500: system.cpu: Tread 0 :: Base : 1772695, L1miss : 13195230, Branch : 1422034, D1miss : 576537, Wait : 14487, Misc : 0, Total : 16980983
12846775500: system.cpu: Tread 1 :: Base : 1757832, L1miss : 13317277, Branch : 1327311, D1miss : 532450, Wait : 14178, Misc : 0, Total : 16949048
12935998500: system.cpu: -------------------------------------------------- 
<bad format>12935998500: system.cpu: Total Cycles :: 17200000 
12935998500: system.cpu: Tread 0 :: Base : 1779336, L1miss : 13271358, Branch : 1436197, D1miss : 578655, Wait : 14529, Misc : 0, Total : 17080075
12935998500: system.cpu: Tread 1 :: Base : 1764428, L1miss : 13389802, Branch : 1331187, D1miss : 533339, Wait : 14204, Misc : 0, Total : 17032960
13024798500: system.cpu: -------------------------------------------------- 
<bad format>13024798500: system.cpu: Total Cycles :: 17300000 
13024798500: system.cpu: Tread 0 :: Base : 1784524, L1miss : 13338736, Branch : 1463447, D1miss : 582426, Wait : 14571, Misc : 0, Total : 17183704
13024798500: system.cpu: Tread 1 :: Base : 1769731, L1miss : 13457062, Branch : 1335346, D1miss : 534897, Wait : 14225, Misc : 0, Total : 17111261
13114473500: system.cpu: -------------------------------------------------- 
<bad format>13114473500: system.cpu: Total Cycles :: 17400000 
13114473500: system.cpu: Tread 0 :: Base : 1788844, L1miss : 13420337, Branch : 1474608, D1miss : 584655, Wait : 14596, Misc : 0, Total : 17283040
13114473500: system.cpu: Tread 1 :: Base : 1776636, L1miss : 13531171, Branch : 1343333, D1miss : 535878, Wait : 14244, Misc : 0, Total : 17201262
13203032000: system.cpu: -------------------------------------------------- 
<bad format>13203032000: system.cpu: Total Cycles :: 17500000 
13203032000: system.cpu: Tread 0 :: Base : 1794036, L1miss : 13495028, Branch : 1493821, D1miss : 588852, Wait : 14613, Misc : 0, Total : 17386350
13203032000: system.cpu: Tread 1 :: Base : 1781291, L1miss : 13603146, Branch : 1359474, D1miss : 538392, Wait : 14264, Misc : 0, Total : 17296567
13285963000: system.cpu: -------------------------------------------------- 
<bad format>13285963000: system.cpu: Total Cycles :: 17600000 
13285963000: system.cpu: Tread 0 :: Base : 1800036, L1miss : 13569514, Branch : 1509129, D1miss : 591124, Wait : 14637, Misc : 0, Total : 17484440
13285963000: system.cpu: Tread 1 :: Base : 1784911, L1miss : 13676428, Branch : 1373030, D1miss : 539664, Wait : 14285, Misc : 0, Total : 17388318
13377364500: system.cpu: -------------------------------------------------- 
<bad format>13377364500: system.cpu: Total Cycles :: 17700000 
13377364500: system.cpu: Tread 0 :: Base : 1805851, L1miss : 13644040, Branch : 1526654, D1miss : 593396, Wait : 14659, Misc : 0, Total : 17584600
13377364500: system.cpu: Tread 1 :: Base : 1789526, L1miss : 13752139, Branch : 1386037, D1miss : 541953, Wait : 14310, Misc : 0, Total : 17483965
13468203500: system.cpu: -------------------------------------------------- 
<bad format>13468203500: system.cpu: Total Cycles :: 17800000 
13468203500: system.cpu: Tread 0 :: Base : 1810909, L1miss : 13722986, Branch : 1538363, D1miss : 594621, Wait : 14690, Misc : 0, Total : 17681569
13468203500: system.cpu: Tread 1 :: Base : 1795361, L1miss : 13829903, Branch : 1400341, D1miss : 543795, Wait : 14335, Misc : 0, Total : 17583735
13551491500: system.cpu: -------------------------------------------------- 
<bad format>13551491500: system.cpu: Total Cycles :: 17900000 
13551491500: system.cpu: Tread 0 :: Base : 1815310, L1miss : 13804061, Branch : 1546040, D1miss : 595510, Wait : 14731, Misc : 0, Total : 17775652
13551491500: system.cpu: Tread 1 :: Base : 1802417, L1miss : 13905508, Branch : 1415622, D1miss : 545730, Wait : 14361, Misc : 0, Total : 17683638
13657355000: system.cpu: RESET 0 0 0
13657355000: system.cpu: RESET 0 0 0
13657355000: system.cpu: -------------------------------------------------- 
<bad format>13657355000: system.cpu: Total Cycles :: 18000000 
13657355000: system.cpu: Tread 0 :: Base : 1819904, L1miss : 13883173, Branch : 1554607, D1miss : 596355, Wait : 14750, Misc : 0, Total : 17868789
13657355000: system.cpu: Tread 1 :: Base : 1807470, L1miss : 13985983, Branch : 1425471, D1miss : 546806, Wait : 14382, Misc : 0, Total : 17780112
13763015000: system.cpu: -------------------------------------------------- 
<bad format>13763015000: system.cpu: Total Cycles :: 18100000 
13763015000: system.cpu: Tread 0 :: Base : 1824537, L1miss : 13960273, Branch : 1563025, D1miss : 597333, Wait : 14762, Misc : 0, Total : 17959930
13763015000: system.cpu: Tread 1 :: Base : 1811999, L1miss : 14065328, Branch : 1433441, D1miss : 547108, Wait : 14395, Misc : 0, Total : 17872271
13861224000: system.cpu: -------------------------------------------------- 
<bad format>13861224000: system.cpu: Total Cycles :: 18200000 
13861224000: system.cpu: Tread 0 :: Base : 1829476, L1miss : 14039693, Branch : 1571784, D1miss : 598491, Wait : 14781, Misc : 0, Total : 18054225
13861224000: system.cpu: Tread 1 :: Base : 1816596, L1miss : 14146634, Branch : 1442128, D1miss : 547753, Wait : 14408, Misc : 0, Total : 17967519
13967972500: system.cpu: -------------------------------------------------- 
<bad format>13967972500: system.cpu: Total Cycles :: 18300000 
13967972500: system.cpu: Tread 0 :: Base : 1834101, L1miss : 14118956, Branch : 1580394, D1miss : 599066, Wait : 14800, Misc : 0, Total : 18147317
13967972500: system.cpu: Tread 1 :: Base : 1820964, L1miss : 14222688, Branch : 1450260, D1miss : 549494, Wait : 14422, Misc : 0, Total : 18057828
14063494500: system.cpu: -------------------------------------------------- 
<bad format>14063494500: system.cpu: Total Cycles :: 18400000 
14063494500: system.cpu: Tread 0 :: Base : 1838904, L1miss : 14196862, Branch : 1592624, D1miss : 600568, Wait : 14813, Misc : 0, Total : 18243771
[...]
44288376000: system.cpu: -------------------------------------------------- 
<bad format>44288376000: system.cpu: Total Cycles :: 51100000 
44288376000: system.cpu: Tread 0 :: Base : 3257896, L1miss : 38424610, Branch : 5597359, D1miss : 1178572, Wait : 20941, Misc : 0, Total : 48479378
44288376000: system.cpu: Tread 1 :: Base : 3218706, L1miss : 38256570, Branch : 5527059, D1miss : 1189622, Wait : 20250, Misc : 0, Total : 48212207
44377725500: system.cpu: -------------------------------------------------- 
<bad format>44377725500: system.cpu: Total Cycles :: 51200000 
44377725500: system.cpu: Tread 0 :: Base : 3262278, L1miss : 38500103, Branch : 5607364, D1miss : 1179253, Wait : 20955, Misc : 0, Total : 48569953
44377725500: system.cpu: Tread 1 :: Base : 3223326, L1miss : 38328838, Branch : 5540523, D1miss : 1191856, Wait : 20268, Misc : 0, Total : 48304811
44460459000: system.cpu: -------------------------------------------------- 
<bad format>44460459000: system.cpu: Total Cycles :: 51300000 
44460459000: system.cpu: Tread 0 :: Base : 3266885, L1miss : 38573101, Branch : 5623831, D1miss : 1181376, Wait : 20971, Misc : 0, Total : 48666164
44460459000: system.cpu: Tread 1 :: Base : 3227276, L1miss : 38402751, Branch : 5551433, D1miss : 1194039, Wait : 20288, Misc : 0, Total : 48395787
44549782000: system.cpu: -------------------------------------------------- 
<bad format>44549782000: system.cpu: Total Cycles :: 51400000 
44549782000: system.cpu: Tread 0 :: Base : 3271097, L1miss : 38645941, Branch : 5639191, D1miss : 1183176, Wait : 20994, Misc : 0, Total : 48760399
44549782000: system.cpu: Tread 1 :: Base : 3231472, L1miss : 38471032, Branch : 5562751, D1miss : 1196133, Wait : 20303, Misc : 0, Total : 48481691
44639783500: system.cpu: -------------------------------------------------- 
<bad format>44639783500: system.cpu: Total Cycles :: 51500000 
44639783500: system.cpu: Tread 0 :: Base : 3275537, L1miss : 38722702, Branch : 5651314, D1miss : 1184937, Wait : 21012, Misc : 0, Total : 48855502
44639783500: system.cpu: Tread 1 :: Base : 3235710, L1miss : 38546186, Branch : 5574909, D1miss : 1197379, Wait : 20318, Misc : 0, Total : 48574502
44726705500: system.cpu: -------------------------------------------------- 
<bad format>44726705500: system.cpu: Total Cycles :: 51600000 
44726705500: system.cpu: Tread 0 :: Base : 3279342, L1miss : 38797579, Branch : 5662280, D1miss : 1186006, Wait : 21025, Misc : 0, Total : 48946232
44726705500: system.cpu: Tread 1 :: Base : 3240328, L1miss : 38622335, Branch : 5588023, D1miss : 1200297, Wait : 20334, Misc : 0, Total : 48671317
44811585500: system.cpu: -------------------------------------------------- 
<bad format>44811585500: system.cpu: Total Cycles :: 51700000 
44811585500: system.cpu: Tread 0 :: Base : 3283891, L1miss : 38871975, Branch : 5676414, D1miss : 1187674, Wait : 21044, Misc : 0, Total : 49040998
44811585500: system.cpu: Tread 1 :: Base : 3244397, L1miss : 38694530, Branch : 5599320, D1miss : 1202383, Wait : 20353, Misc : 0, Total : 48760983
44898937500: system.cpu: -------------------------------------------------- 
<bad format>44898937500: system.cpu: Total Cycles :: 51800000 
44898937500: system.cpu: Tread 0 :: Base : 3287716, L1miss : 38941716, Branch : 5687099, D1miss : 1188333, Wait : 21071, Misc : 0, Total : 49125935
44898937500: system.cpu: Tread 1 :: Base : 3248792, L1miss : 38767711, Branch : 5612891, D1miss : 1204482, Wait : 20370, Misc : 0, Total : 48854246
44987743000: system.cpu: -------------------------------------------------- 
<bad format>44987743000: system.cpu: Total Cycles :: 51900000 
44987743000: system.cpu: Tread 0 :: Base : 3292165, L1miss : 39014328, Branch : 5699727, D1miss : 1189782, Wait : 21087, Misc : 0, Total : 49217089
44987743000: system.cpu: Tread 1 :: Base : 3252823, L1miss : 38839682, Branch : 5627394, D1miss : 1206973, Wait : 20390, Misc : 0, Total : 48947262
45078130500: system.cpu: RESET 0 0 0
45078130500: system.cpu: RESET 0 0 0
45078130500: system.cpu: -------------------------------------------------- 
<bad format>45078130500: system.cpu: Total Cycles :: 52000000 
45078130500: system.cpu: Tread 0 :: Base : 3296250, L1miss : 39086484, Branch : 5714047, D1miss : 1191870, Wait : 21109, Misc : 0, Total : 49309760
45078130500: system.cpu: Tread 1 :: Base : 3256788, L1miss : 38913695, Branch : 5639150, D1miss : 1208791, Wait : 20405, Misc : 0, Total : 49038829
45160135500: system.cpu: -------------------------------------------------- 
<bad format>45160135500: system.cpu: Total Cycles :: 52100000 
45160135500: system.cpu: Tread 0 :: Base : 3300369, L1miss : 39158411, Branch : 5729652, D1miss : 1195335, Wait : 21127, Misc : 0, Total : 49404894
45160135500: system.cpu: Tread 1 :: Base : 3260734, L1miss : 38983819, Branch : 5653911, D1miss : 1210217, Wait : 20417, Misc : 0, Total : 49129098
45250213000: system.cpu: -------------------------------------------------- 
<bad format>45250213000: system.cpu: Total Cycles :: 52200000 
45250213000: system.cpu: Tread 0 :: Base : 3304514, L1miss : 39229664, Branch : 5745206, D1miss : 1198504, Wait : 21146, Misc : 0, Total : 49499034
45250213000: system.cpu: Tread 1 :: Base : 3264924, L1miss : 39057468, Branch : 5665788, D1miss : 1213287, Wait : 20440, Misc : 0, Total : 49221907
45345035000: system.cpu: -------------------------------------------------- 
<bad format>45345035000: system.cpu: Total Cycles :: 52300000 
45345035000: system.cpu: Tread 0 :: Base : 3308816, L1miss : 39299948, Branch : 5760070, D1miss : 1200557, Wait : 21161, Misc : 0, Total : 49590552
45345035000: system.cpu: Tread 1 :: Base : 3268947, L1miss : 39133131, Branch : 5677467, D1miss : 1214693, Wait : 20459, Misc : 0, Total : 49314697
45432606000: system.cpu: -------------------------------------------------- 
<bad format>45432606000: system.cpu: Total Cycles :: 52400000 
45432606000: system.cpu: Tread 0 :: Base : 3312453, L1miss : 39372414, Branch : 5774049, D1miss : 1201899, Wait : 21180, Misc : 0, Total : 49681995
45432606000: system.cpu: Tread 1 :: Base : 3273482, L1miss : 39202845, Branch : 5693453, D1miss : 1217280, Wait : 20478, Misc : 0, Total : 49407538
45517187000: system.cpu: -------------------------------------------------- 
<bad format>45517187000: system.cpu: Total Cycles :: 52500000 
45517187000: system.cpu: Tread 0 :: Base : 3317152, L1miss : 39447586, Branch : 5788565, D1miss : 1203743, Wait : 21202, Misc : 0, Total : 49778248
45517187000: system.cpu: Tread 1 :: Base : 3277539, L1miss : 39275863, Branch : 5704697, D1miss : 1219724, Wait : 20502, Misc : 0, Total : 49498325
45604821500: system.cpu: -------------------------------------------------- 
<bad format>45604821500: system.cpu: Total Cycles :: 52600000 
45604821500: system.cpu: Tread 0 :: Base : 3321535, L1miss : 39522214, Branch : 5802578, D1miss : 1205275, Wait : 21216, Misc : 0, Total : 49872818
45604821500: system.cpu: Tread 1 :: Base : 3281550, L1miss : 39344296, Branch : 5716415, D1miss : 1222297, Wait : 20524, Misc : 0, Total : 49585082
45699454000: system.cpu: -------------------------------------------------- 
<bad format>45699454000: system.cpu: Total Cycles :: 52700000 
45699454000: system.cpu: Tread 0 :: Base : 3325982, L1miss : 39592458, Branch : 5817735, D1miss : 1207916, Wait : 21236, Misc : 0, Total : 49965327
45699454000: system.cpu: Tread 1 :: Base : 3285759, L1miss : 39419491, Branch : 5727243, D1miss : 1224004, Wait : 20537, Misc : 0, Total : 49677034
45789541500: system.cpu: -------------------------------------------------- 
<bad format>45789541500: system.cpu: Total Cycles :: 52800000 
45789541500: system.cpu: Tread 0 :: Base : 3329882, L1miss : 39662188, Branch : 5831789, D1miss : 1209467, Wait : 21256, Misc : 0, Total : 50054582
45789541500: system.cpu: Tread 1 :: Base : 3290473, L1miss : 39489898, Branch : 5742917, D1miss : 1226783, Wait : 20560, Misc : 0, Total : 49770631
45874937500: system.cpu: -------------------------------------------------- 
<bad format>45874937500: system.cpu: Total Cycles :: 52900000 
45874937500: system.cpu: Tread 0 :: Base : 3334412, L1miss : 39732202, Branch : 5847166, D1miss : 1211028, Wait : 21284, Misc : 0, Total : 50146092
45874937500: system.cpu: Tread 1 :: Base : 3294486, L1miss : 39560528, Branch : 5756367, D1miss : 1229151, Wait : 20579, Misc : 0, Total : 49861111
45962279500: system.cpu: RESET 0 0 0
45962279500: system.cpu: RESET 0 0 0
45962279500: system.cpu: -------------------------------------------------- 
<bad format>45962279500: system.cpu: Total Cycles :: 53000000 
45962279500: system.cpu: Tread 0 :: Base : 3338835, L1miss : 39801003, Branch : 5861727, D1miss : 1213607, Wait : 21314, Misc : 0, Total : 50236486
45962279500: system.cpu: Tread 1 :: Base : 3298662, L1miss : 39632925, Branch : 5766316, D1miss : 1230448, Wait : 20601, Misc : 0, Total : 49948952
46051566000: system.cpu: -------------------------------------------------- 
<bad format>46051566000: system.cpu: Total Cycles :: 53100000 
46051566000: system.cpu: Tread 0 :: Base : 3343307, L1miss : 39875419, Branch : 5874737, D1miss : 1215706, Wait : 21329, Misc : 0, Total : 50330498
46051566000: system.cpu: Tread 1 :: Base : 3302601, L1miss : 39710826, Branch : 5775410, D1miss : 1231417, Wait : 20616, Misc : 0, Total : 50040870
46136663000: system.cpu: -------------------------------------------------- 
<bad format>46136663000: system.cpu: Total Cycles :: 53200000 
46136663000: system.cpu: Tread 0 :: Base : 3347167, L1miss : 39944609, Branch : 5887095, D1miss : 1217208, Wait : 21354, Misc : 0, Total : 50417433
46136663000: system.cpu: Tread 1 :: Base : 3306979, L1miss : 39779994, Branch : 5791967, D1miss : 1233956, Wait : 20640, Misc : 0, Total : 50133536
46225495000: system.cpu: -------------------------------------------------- 
<bad format>46225495000: system.cpu: Total Cycles :: 53300000 
46225495000: system.cpu: Tread 0 :: Base : 3351408, L1miss : 40015983, Branch : 5899001, D1miss : 1219346, Wait : 21375, Misc : 0, Total : 50507113
46225495000: system.cpu: Tread 1 :: Base : 3311212, L1miss : 39851720, Branch : 5807539, D1miss : 1235595, Wait : 20660, Misc : 0, Total : 50226726
46317727000: system.cpu: -------------------------------------------------- 
<bad format>46317727000: system.cpu: Total Cycles :: 53400000 
46317727000: system.cpu: Tread 0 :: Base : 3355623, L1miss : 40092193, Branch : 5910018, D1miss : 1220797, Wait : 21390, Misc : 0, Total : 50600021
46317727000: system.cpu: Tread 1 :: Base : 3315531, L1miss : 39923791, Branch : 5821396, D1miss : 1237256, Wait : 20671, Misc : 0, Total : 50318645
46400654000: system.cpu: -------------------------------------------------- 
<bad format>46400654000: system.cpu: Total Cycles :: 53500000 
46400654000: system.cpu: Tread 0 :: Base : 3359993, L1miss : 40166111, Branch : 5922566, D1miss : 1223309, Wait : 21415, Misc : 0, Total : 50693394
46400654000: system.cpu: Tread 1 :: Base : 3319318, L1miss : 39994648, Branch : 5833655, D1miss : 1239474, Wait : 20691, Misc : 0, Total : 50407786
46484542500: system.cpu: -------------------------------------------------- 
<bad format>46484542500: system.cpu: Total Cycles :: 53600000 
46484542500: system.cpu: Tread 0 :: Base : 3363887, L1miss : 40238099, Branch : 5936649, D1miss : 1225561, Wait : 21430, Misc : 0, Total : 50785626
46484542500: system.cpu: Tread 1 :: Base : 3323401, L1miss : 40064452, Branch : 5849929, D1miss : 1241648, Wait : 20711, Misc : 0, Total : 50500141
46576652000: system.cpu: -------------------------------------------------- 
<bad format>46576652000: system.cpu: Total Cycles :: 53700000 
46576652000: system.cpu: Tread 0 :: Base : 3368552, L1miss : 40312073, Branch : 5951336, D1miss : 1226781, Wait : 21452, Misc : 0, Total : 50880194
46576652000: system.cpu: Tread 1 :: Base : 3327500, L1miss : 40132234, Branch : 5864807, D1miss : 1243893, Wait : 20734, Misc : 0, Total : 50589168
46671066000: system.cpu: -------------------------------------------------- 
<bad format>46671066000: system.cpu: Total Cycles :: 53800000 
46671066000: system.cpu: Tread 0 :: Base : 3372570, L1miss : 40382989, Branch : 5965037, D1miss : 1229491, Wait : 21472, Misc : 0, Total : 50971559
46671066000: system.cpu: Tread 1 :: Base : 3331386, L1miss : 40203926, Branch : 5876051, D1miss : 1245391, Wait : 20752, Misc : 0, Total : 50677506
46753703000: system.cpu: -------------------------------------------------- 
<bad format>46753703000: system.cpu: Total Cycles :: 53900000 
46753703000: system.cpu: Tread 0 :: Base : 3376678, L1miss : 40451282, Branch : 5980551, D1miss : 1231074, Wait : 21493, Misc : 0, Total : 51061078
46753703000: system.cpu: Tread 1 :: Base : 3335418, L1miss : 40273790, Branch : 5888479, D1miss : 1247862, Wait : 20773, Misc : 0, Total : 50766322
46841750500: system.cpu: RESET 0 0 0
46841750500: system.cpu: RESET 0 0 0
46841750500: system.cpu: -------------------------------------------------- 
<bad format>46841750500: system.cpu: Total Cycles :: 54000000 
46841750500: system.cpu: Tread 0 :: Base : 3380512, L1miss : 40522447, Branch : 5998807, D1miss : 1233261, Wait : 21513, Misc : 0, Total : 51156540
46841750500: system.cpu: Tread 1 :: Base : 3339429, L1miss : 40346799, Branch : 5902123, D1miss : 1249630, Wait : 20794, Misc : 0, Total : 50858775
46933846000: system.cpu: -------------------------------------------------- 
<bad format>46933846000: system.cpu: Total Cycles :: 54100000 
46933846000: system.cpu: Tread 0 :: Base : 3384191, L1miss : 40594177, Branch : 6008506, D1miss : 1234431, Wait : 21532, Misc : 0, Total : 51242837
46933846000: system.cpu: Tread 1 :: Base : 3344073, L1miss : 40419955, Branch : 5916467, D1miss : 1251020, Wait : 20815, Misc : 0, Total : 50952330
47021434000: system.cpu: -------------------------------------------------- 
<bad format>47021434000: system.cpu: Total Cycles :: 54200000 
47021434000: system.cpu: Tread 0 :: Base : 3389024, L1miss : 40663325, Branch : 6023701, D1miss : 1236215, Wait : 21550, Misc : 0, Total : 51333815
47021434000: system.cpu: Tread 1 :: Base : 3347739, L1miss : 40492748, Branch : 5927526, D1miss : 1252238, Wait : 20829, Misc : 0, Total : 51041080
47106134000: system.cpu: -------------------------------------------------- 
<bad format>47106134000: system.cpu: Total Cycles :: 54300000 
47106134000: system.cpu: Tread 0 :: Base : 3392904, L1miss : 40738278, Branch : 6036385, D1miss : 1237460, Wait : 21567, Misc : 0, Total : 51426594
47106134000: system.cpu: Tread 1 :: Base : 3352039, L1miss : 40560314, Branch : 5944560, D1miss : 1255445, Wait : 20845, Misc : 0, Total : 51133203
47196164000: system.cpu: -------------------------------------------------- 
<bad format>47196164000: system.cpu: Total Cycles :: 54400000 
47196164000: system.cpu: Tread 0 :: Base : 3397472, L1miss : 40813807, Branch : 6048882, D1miss : 1239126, Wait : 21586, Misc : 0, Total : 51520873
47196164000: system.cpu: Tread 1 :: Base : 3355621, L1miss : 40631450, Branch : 5958705, D1miss : 1257400, Wait : 20865, Misc : 0, Total : 51224041
47287188500: system.cpu: -------------------------------------------------- 
<bad format>47287188500: system.cpu: Total Cycles :: 54500000 
47287188500: system.cpu: Tread 0 :: Base : 3401360, L1miss : 40884692, Branch : 6061146, D1miss : 1240978, Wait : 21605, Misc : 0, Total : 51609781
47287188500: system.cpu: Tread 1 :: Base : 3359611, L1miss : 40704485, Branch : 5970879, D1miss : 1259041, Wait : 20878, Misc : 0, Total : 51314894
47375314500: system.cpu: -------------------------------------------------- 
<bad format>47375314500: system.cpu: Total Cycles :: 54600000 
47375314500: system.cpu: Tread 0 :: Base : 3405948, L1miss : 40957681, Branch : 6075587, D1miss : 1242229, Wait : 21624, Misc : 0, Total : 51703069
47375314500: system.cpu: Tread 1 :: Base : 3363731, L1miss : 40776665, Branch : 5985029, D1miss : 1260685, Wait : 20900, Misc : 0, Total : 51407010
47465874500: system.cpu: -------------------------------------------------- 
<bad format>47465874500: system.cpu: Total Cycles :: 54700000 
47465874500: system.cpu: Tread 0 :: Base : 3410060, L1miss : 41029183, Branch : 6089423, D1miss : 1243652, Wait : 21649, Misc : 0, Total : 51793967
47465874500: system.cpu: Tread 1 :: Base : 3368181, L1miss : 40850327, Branch : 5997987, D1miss : 1262719, Wait : 20924, Misc : 0, Total : 51500138
47552159500: system.cpu: -------------------------------------------------- 
<bad format>47552159500: system.cpu: Total Cycles :: 54800000 
47552159500: system.cpu: Tread 0 :: Base : 3414080, L1miss : 41102239, Branch : 6100434, D1miss : 1245447, Wait : 21665, Misc : 0, Total : 51883865
47552159500: system.cpu: Tread 1 :: Base : 3372794, L1miss : 40918232, Branch : 6015978, D1miss : 1265669, Wait : 20939, Misc : 0, Total : 51593612
47643876000: system.cpu: -------------------------------------------------- 
<bad format>47643876000: system.cpu: Total Cycles :: 54900000 
47643876000: system.cpu: Tread 0 :: Base : 3417942, L1miss : 41173304, Branch : 6111713, D1miss : 1246910, Wait : 21688, Misc : 0, Total : 51971557
47643876000: system.cpu: Tread 1 :: Base : 3377098, L1miss : 40988021, Branch : 6031504, D1miss : 1267610, Wait : 20960, Misc : 0, Total : 51685193
47730734500: system.cpu: RESET 0 0 0
47730734500: system.cpu: RESET 0 0 0
47730734500: system.cpu: -------------------------------------------------- 
<bad format>47730734500: system.cpu: Total Cycles :: 55000000 
47730734500: system.cpu: Tread 0 :: Base : 3422108, L1miss : 41245132, Branch : 6121690, D1miss : 1248081, Wait : 21699, Misc : 0, Total : 52058710
47730734500: system.cpu: Tread 1 :: Base : 3381232, L1miss : 41053340, Branch : 6045085, D1miss : 1270976, Wait : 20983, Misc : 0, Total : 51771616
47823683000: system.cpu: -------------------------------------------------- 
<bad format>47823683000: system.cpu: Total Cycles :: 55100000 
47823683000: system.cpu: Tread 0 :: Base : 3426626, L1miss : 41314101, Branch : 6136364, D1miss : 1251084, Wait : 21718, Misc : 0, Total : 52149893
47823683000: system.cpu: Tread 1 :: Base : 3385250, L1miss : 41127266, Branch : 6055971, D1miss : 1273259, Wait : 21004, Misc : 0, Total : 51862750
47908607000: system.cpu: -------------------------------------------------- 
<bad format>47908607000: system.cpu: Total Cycles :: 55200000 
47908607000: system.cpu: Tread 0 :: Base : 3430686, L1miss : 41390563, Branch : 6149943, D1miss : 1252739, Wait : 21739, Misc : 0, Total : 52245670
47908607000: system.cpu: Tread 1 :: Base : 3389847, L1miss : 41193684, Branch : 6072755, D1miss : 1275964, Wait : 21025, Misc : 0, Total : 51953275
47997990000: system.cpu: -------------------------------------------------- 
<bad format>47997990000: system.cpu: Total Cycles :: 55300000 
47997990000: system.cpu: Tread 0 :: Base : 3435021, L1miss : 41465892, Branch : 6160270, D1miss : 1254274, Wait : 21763, Misc : 0, Total : 52337220
47997990000: system.cpu: Tread 1 :: Base : 3394000, L1miss : 41263512, Branch : 6084863, D1miss : 1277886, Wait : 21041, Misc : 0, Total : 52041302
48093247000: system.cpu: -------------------------------------------------- 
<bad format>48093247000: system.cpu: Total Cycles :: 55400000 
48093247000: system.cpu: Tread 0 :: Base : 3438897, L1miss : 41536587, Branch : 6171246, D1miss : 1255747, Wait : 21778, Misc : 0, Total : 52424255
48093247000: system.cpu: Tread 1 :: Base : 3398138, L1miss : 41332317, Branch : 6100968, D1miss : 1279332, Wait : 21059, Misc : 0, Total : 52131814
48180066500: system.cpu: -------------------------------------------------- 
<bad format>48180066500: system.cpu: Total Cycles :: 55500000 
48180066500: system.cpu: Tread 0 :: Base : 3443404, L1miss : 41605902, Branch : 6186519, D1miss : 1258327, Wait : 21798, Misc : 0, Total : 52515950
48180066500: system.cpu: Tread 1 :: Base : 3402184, L1miss : 41404968, Branch : 6115622, D1miss : 1281417, Wait : 21079, Misc : 0, Total : 52225270
