gem5 Simulator System.  http://gem5.org
gem5 is copyrighted software; use the --copyright option for details.

gem5 compiled Dec 21 2017 13:35:48
gem5 started Dec 21 2017 17:39:33
gem5 executing on worker05, pid 230922
command line: ./build/ALPHA/gem5.debug --debug-flag=Progress configs/example/se.py -n 1 --smt --cpu-type=DerivO3CPU -c '../../spec_alpha/bzip_test/t2/bzip2_base.alpha;../../spec_alpha/bzip_test/t3/bzip2_base.alpha' '--options=../../spec_alpha/bzip_test/t2/chicken.jpg;../../spec_alpha/bzip_test/t3/chicken.jpg' --caches --l1d_size=32kB --l1i_size=32kB --l2_size=256kB --l3_size=8MB --mem-size=8GB

Global frequency set at 1000000000000 ticks per second
**** REAL SIMULATION ****
spec_init
spec_init
59736000: system.cpu: -------------------------------------------------- 
<bad format>59736000: system.cpu: Total Cycles :: 100000 
59736000: system.cpu: Tread 0 :: Base : 3541, L1miss : 40545, Branch : 3162, D1miss : 19700, Wait : 30, Misc : 0, Total : 66978
59736000: system.cpu: Tread 1 :: Base : 3231, L1miss : 37992, Branch : 3749, D1miss : 20501, Wait : 17, Misc : 0, Total : 65490
109736000: system.cpu: -------------------------------------------------- 
<bad format>109736000: system.cpu: Total Cycles :: 200000 
109736000: system.cpu: Tread 0 :: Base : 6984, L1miss : 69227, Branch : 3162, D1miss : 46678, Wait : 68, Misc : 0, Total : 126119
109736000: system.cpu: Tread 1 :: Base : 6060, L1miss : 62310, Branch : 3749, D1miss : 46174, Wait : 31, Misc : 0, Total : 118324
159736000: system.cpu: -------------------------------------------------- 
<bad format>159736000: system.cpu: Total Cycles :: 300000 
159736000: system.cpu: Tread 0 :: Base : 10512, L1miss : 98333, Branch : 3162, D1miss : 74766, Wait : 100, Misc : 0, Total : 186873
159736000: system.cpu: Tread 1 :: Base : 8871, L1miss : 88302, Branch : 3749, D1miss : 71958, Wait : 48, Misc : 0, Total : 172928
209736000: system.cpu: -------------------------------------------------- 
<bad format>209736000: system.cpu: Total Cycles :: 400000 
209736000: system.cpu: Tread 0 :: Base : 14013, L1miss : 128774, Branch : 3162, D1miss : 101350, Wait : 134, Misc : 0, Total : 247433
209736000: system.cpu: Tread 1 :: Base : 11835, L1miss : 115515, Branch : 3749, D1miss : 97730, Wait : 61, Misc : 0, Total : 228890
259736000: system.cpu: -------------------------------------------------- 
<bad format>259736000: system.cpu: Total Cycles :: 500000 
259736000: system.cpu: Tread 0 :: Base : 17582, L1miss : 159809, Branch : 3162, D1miss : 129486, Wait : 165, Misc : 0, Total : 310204
259736000: system.cpu: Tread 1 :: Base : 14631, L1miss : 140523, Branch : 3749, D1miss : 123559, Wait : 74, Misc : 0, Total : 282536
309736000: system.cpu: -------------------------------------------------- 
<bad format>309736000: system.cpu: Total Cycles :: 600000 
309736000: system.cpu: Tread 0 :: Base : 21018, L1miss : 191297, Branch : 3162, D1miss : 154408, Wait : 190, Misc : 0, Total : 370075
309736000: system.cpu: Tread 1 :: Base : 17711, L1miss : 167277, Branch : 3749, D1miss : 149788, Wait : 97, Misc : 0, Total : 338622
359736000: system.cpu: -------------------------------------------------- 
<bad format>359736000: system.cpu: Total Cycles :: 700000 
359736000: system.cpu: Tread 0 :: Base : 23775, L1miss : 219565, Branch : 3162, D1miss : 176637, Wait : 204, Misc : 0, Total : 423343
359736000: system.cpu: Tread 1 :: Base : 21240, L1miss : 194577, Branch : 3749, D1miss : 175931, Wait : 122, Misc : 0, Total : 395619
409736000: system.cpu: -------------------------------------------------- 
<bad format>409736000: system.cpu: Total Cycles :: 800000 
409736000: system.cpu: Tread 0 :: Base : 26571, L1miss : 247520, Branch : 3162, D1miss : 199418, Wait : 221, Misc : 0, Total : 476892
409736000: system.cpu: Tread 1 :: Base : 24735, L1miss : 221539, Branch : 3749, D1miss : 201906, Wait : 146, Misc : 0, Total : 452075
459736000: system.cpu: -------------------------------------------------- 
<bad format>459736000: system.cpu: Total Cycles :: 900000 
459736000: system.cpu: Tread 0 :: Base : 29342, L1miss : 276803, Branch : 3162, D1miss : 221913, Wait : 236, Misc : 0, Total : 531456
459736000: system.cpu: Tread 1 :: Base : 28121, L1miss : 247278, Branch : 3749, D1miss : 227983, Wait : 173, Misc : 0, Total : 507304
509736000: system.cpu: RESET 0 0 0
509736000: system.cpu: RESET 0 0 0
509736000: system.cpu: -------------------------------------------------- 
<bad format>509736000: system.cpu: Total Cycles :: 1000000 
509736000: system.cpu: Tread 0 :: Base : 32170, L1miss : 304204, Branch : 3162, D1miss : 244658, Wait : 249, Misc : 0, Total : 584443
509736000: system.cpu: Tread 1 :: Base : 31781, L1miss : 275164, Branch : 3749, D1miss : 253843, Wait : 200, Misc : 0, Total : 564737
559736000: system.cpu: -------------------------------------------------- 
<bad format>559736000: system.cpu: Total Cycles :: 1100000 
559736000: system.cpu: Tread 0 :: Base : 34997, L1miss : 330617, Branch : 3162, D1miss : 267471, Wait : 265, Misc : 0, Total : 636512
559736000: system.cpu: Tread 1 :: Base : 35261, L1miss : 302047, Branch : 3749, D1miss : 279377, Wait : 224, Misc : 0, Total : 620658
609736000: system.cpu: -------------------------------------------------- 
<bad format>609736000: system.cpu: Total Cycles :: 1200000 
609736000: system.cpu: Tread 0 :: Base : 37771, L1miss : 357998, Branch : 3162, D1miss : 290061, Wait : 278, Misc : 0, Total : 689270
609736000: system.cpu: Tread 1 :: Base : 38770, L1miss : 328198, Branch : 3749, D1miss : 304610, Wait : 253, Misc : 0, Total : 675580
659736000: system.cpu: -------------------------------------------------- 
<bad format>659736000: system.cpu: Total Cycles :: 1300000 
659736000: system.cpu: Tread 0 :: Base : 40608, L1miss : 384918, Branch : 3162, D1miss : 312549, Wait : 290, Misc : 0, Total : 741527
659736000: system.cpu: Tread 1 :: Base : 42407, L1miss : 355549, Branch : 3749, D1miss : 330661, Wait : 276, Misc : 0, Total : 732642
709736000: system.cpu: -------------------------------------------------- 
<bad format>709736000: system.cpu: Total Cycles :: 1400000 
709736000: system.cpu: Tread 0 :: Base : 43478, L1miss : 413836, Branch : 3162, D1miss : 334930, Wait : 304, Misc : 0, Total : 795710
709736000: system.cpu: Tread 1 :: Base : 46044, L1miss : 382910, Branch : 3749, D1miss : 357150, Wait : 299, Misc : 0, Total : 790152
759736000: system.cpu: -------------------------------------------------- 
<bad format>759736000: system.cpu: Total Cycles :: 1500000 
759736000: system.cpu: Tread 0 :: Base : 46199, L1miss : 439916, Branch : 3162, D1miss : 357322, Wait : 319, Misc : 0, Total : 846918
759736000: system.cpu: Tread 1 :: Base : 49699, L1miss : 409748, Branch : 3749, D1miss : 382836, Wait : 326, Misc : 0, Total : 846358
809736000: system.cpu: -------------------------------------------------- 
<bad format>809736000: system.cpu: Total Cycles :: 1600000 
809736000: system.cpu: Tread 0 :: Base : 48901, L1miss : 466034, Branch : 3162, D1miss : 379753, Wait : 335, Misc : 0, Total : 898185
809736000: system.cpu: Tread 1 :: Base : 53437, L1miss : 438957, Branch : 3749, D1miss : 408989, Wait : 352, Misc : 0, Total : 905484
859736000: system.cpu: -------------------------------------------------- 
<bad format>859736000: system.cpu: Total Cycles :: 1700000 
859736000: system.cpu: Tread 0 :: Base : 51606, L1miss : 491488, Branch : 3162, D1miss : 402552, Wait : 350, Misc : 0, Total : 949158
859736000: system.cpu: Tread 1 :: Base : 57051, L1miss : 466229, Branch : 3749, D1miss : 434733, Wait : 378, Misc : 0, Total : 962140
909736000: system.cpu: -------------------------------------------------- 
<bad format>909736000: system.cpu: Total Cycles :: 1800000 
909736000: system.cpu: Tread 0 :: Base : 54359, L1miss : 520498, Branch : 3162, D1miss : 425005, Wait : 362, Misc : 0, Total : 1003386
909736000: system.cpu: Tread 1 :: Base : 60783, L1miss : 494062, Branch : 3749, D1miss : 460284, Wait : 405, Misc : 0, Total : 1019283
959736000: system.cpu: -------------------------------------------------- 
<bad format>959736000: system.cpu: Total Cycles :: 1900000 
959736000: system.cpu: Tread 0 :: Base : 57021, L1miss : 548888, Branch : 3162, D1miss : 447467, Wait : 379, Misc : 0, Total : 1056917
959736000: system.cpu: Tread 1 :: Base : 64629, L1miss : 522053, Branch : 3749, D1miss : 486172, Wait : 429, Misc : 0, Total : 1077032
1009736000: system.cpu: RESET 0 0 0
1009736000: system.cpu: RESET 0 0 0
1009736000: system.cpu: -------------------------------------------------- 
<bad format>1009736000: system.cpu: Total Cycles :: 2000000 
1009736000: system.cpu: Tread 0 :: Base : 59802, L1miss : 577845, Branch : 3162, D1miss : 469892, Wait : 394, Misc : 0, Total : 1111095
1009736000: system.cpu: Tread 1 :: Base : 68446, L1miss : 550411, Branch : 3749, D1miss : 512079, Wait : 456, Misc : 0, Total : 1135141
1059736000: system.cpu: -------------------------------------------------- 
<bad format>1059736000: system.cpu: Total Cycles :: 2100000 
1059736000: system.cpu: Tread 0 :: Base : 62555, L1miss : 604126, Branch : 3162, D1miss : 492928, Wait : 410, Misc : 0, Total : 1163181
1059736000: system.cpu: Tread 1 :: Base : 72171, L1miss : 579059, Branch : 3749, D1miss : 537803, Wait : 482, Misc : 0, Total : 1193264
1109736000: system.cpu: -------------------------------------------------- 
<bad format>1109736000: system.cpu: Total Cycles :: 2200000 
1109736000: system.cpu: Tread 0 :: Base : 65334, L1miss : 632052, Branch : 3162, D1miss : 515408, Wait : 424, Misc : 0, Total : 1216380
1109736000: system.cpu: Tread 1 :: Base : 76117, L1miss : 607848, Branch : 3749, D1miss : 563284, Wait : 508, Misc : 0, Total : 1251506
1159736000: system.cpu: -------------------------------------------------- 
<bad format>1159736000: system.cpu: Total Cycles :: 2300000 
1159736000: system.cpu: Tread 0 :: Base : 67982, L1miss : 658716, Branch : 3162, D1miss : 537992, Wait : 437, Misc : 0, Total : 1268289
1159736000: system.cpu: Tread 1 :: Base : 79898, L1miss : 635538, Branch : 3749, D1miss : 589762, Wait : 533, Misc : 0, Total : 1309480
1209736000: system.cpu: -------------------------------------------------- 
<bad format>1209736000: system.cpu: Total Cycles :: 2400000 
1209736000: system.cpu: Tread 0 :: Base : 70899, L1miss : 685709, Branch : 3162, D1miss : 560938, Wait : 454, Misc : 0, Total : 1321162
1209736000: system.cpu: Tread 1 :: Base : 83677, L1miss : 664466, Branch : 3749, D1miss : 615214, Wait : 560, Misc : 0, Total : 1367666
1259736000: system.cpu: -------------------------------------------------- 
<bad format>1259736000: system.cpu: Total Cycles :: 2500000 
1259736000: system.cpu: Tread 0 :: Base : 73770, L1miss : 714641, Branch : 3162, D1miss : 583632, Wait : 466, Misc : 0, Total : 1375671
1259736000: system.cpu: Tread 1 :: Base : 87376, L1miss : 692140, Branch : 3749, D1miss : 640768, Wait : 588, Misc : 0, Total : 1424621
1309736000: system.cpu: -------------------------------------------------- 
<bad format>1309736000: system.cpu: Total Cycles :: 2600000 
1309736000: system.cpu: Tread 0 :: Base : 76460, L1miss : 743839, Branch : 3162, D1miss : 605913, Wait : 482, Misc : 0, Total : 1429856
1309736000: system.cpu: Tread 1 :: Base : 91294, L1miss : 720554, Branch : 3749, D1miss : 667123, Wait : 615, Misc : 0, Total : 1483335
1359736000: system.cpu: -------------------------------------------------- 
<bad format>1359736000: system.cpu: Total Cycles :: 2700000 
1359736000: system.cpu: Tread 0 :: Base : 79372, L1miss : 772482, Branch : 3162, D1miss : 628802, Wait : 501, Misc : 0, Total : 1484319
1359736000: system.cpu: Tread 1 :: Base : 95012, L1miss : 748882, Branch : 3749, D1miss : 692683, Wait : 646, Misc : 0, Total : 1540972
1409736000: system.cpu: -------------------------------------------------- 
<bad format>1409736000: system.cpu: Total Cycles :: 2800000 
1409736000: system.cpu: Tread 0 :: Base : 82180, L1miss : 801423, Branch : 3162, D1miss : 651506, Wait : 514, Misc : 0, Total : 1538785
1409736000: system.cpu: Tread 1 :: Base : 98615, L1miss : 775379, Branch : 3749, D1miss : 718239, Wait : 677, Misc : 0, Total : 1596659
1459736000: system.cpu: -------------------------------------------------- 
<bad format>1459736000: system.cpu: Total Cycles :: 2900000 
1459736000: system.cpu: Tread 0 :: Base : 85010, L1miss : 831939, Branch : 3162, D1miss : 673890, Wait : 532, Misc : 0, Total : 1594533
1459736000: system.cpu: Tread 1 :: Base : 102590, L1miss : 804637, Branch : 3749, D1miss : 744110, Wait : 703, Misc : 0, Total : 1655789
1509736000: system.cpu: RESET 0 0 0
1509736000: system.cpu: RESET 0 0 0
1509736000: system.cpu: -------------------------------------------------- 
<bad format>1509736000: system.cpu: Total Cycles :: 3000000 
1509736000: system.cpu: Tread 0 :: Base : 87775, L1miss : 859874, Branch : 3162, D1miss : 696642, Wait : 550, Misc : 0, Total : 1648003
1509736000: system.cpu: Tread 1 :: Base : 106320, L1miss : 832803, Branch : 3749, D1miss : 770271, Wait : 734, Misc : 0, Total : 1713877
1559736000: system.cpu: -------------------------------------------------- 
<bad format>1559736000: system.cpu: Total Cycles :: 3100000 
1559736000: system.cpu: Tread 0 :: Base : 90644, L1miss : 887290, Branch : 3162, D1miss : 719488, Wait : 564, Misc : 0, Total : 1701148
1559736000: system.cpu: Tread 1 :: Base : 109916, L1miss : 860164, Branch : 3749, D1miss : 795660, Wait : 763, Misc : 0, Total : 1770252
1609736000: system.cpu: -------------------------------------------------- 
<bad format>1609736000: system.cpu: Total Cycles :: 3200000 
1609736000: system.cpu: Tread 0 :: Base : 93429, L1miss : 916808, Branch : 3162, D1miss : 741977, Wait : 581, Misc : 0, Total : 1755957
1609736000: system.cpu: Tread 1 :: Base : 113526, L1miss : 887374, Branch : 3749, D1miss : 821627, Wait : 786, Misc : 0, Total : 1827062
1659736000: system.cpu: -------------------------------------------------- 
<bad format>1659736000: system.cpu: Total Cycles :: 3300000 
1659736000: system.cpu: Tread 0 :: Base : 96148, L1miss : 945563, Branch : 3162, D1miss : 764368, Wait : 596, Misc : 0, Total : 1809837
1659736000: system.cpu: Tread 1 :: Base : 117033, L1miss : 914212, Branch : 3749, D1miss : 847773, Wait : 812, Misc : 0, Total : 1883579
1709736000: system.cpu: -------------------------------------------------- 
<bad format>1709736000: system.cpu: Total Cycles :: 3400000 
1709736000: system.cpu: Tread 0 :: Base : 99201, L1miss : 974751, Branch : 3162, D1miss : 787577, Wait : 614, Misc : 0, Total : 1865305
1709736000: system.cpu: Tread 1 :: Base : 120667, L1miss : 940543, Branch : 3749, D1miss : 873063, Wait : 840, Misc : 0, Total : 1938862
1759736000: system.cpu: -------------------------------------------------- 
<bad format>1759736000: system.cpu: Total Cycles :: 3500000 
1759736000: system.cpu: Tread 0 :: Base : 101926, L1miss : 1003529, Branch : 3162, D1miss : 810073, Wait : 629, Misc : 0, Total : 1919319
1759736000: system.cpu: Tread 1 :: Base : 124262, L1miss : 968565, Branch : 3749, D1miss : 898830, Wait : 865, Misc : 0, Total : 1996271
1809736000: system.cpu: -------------------------------------------------- 
<bad format>1809736000: system.cpu: Total Cycles :: 3600000 
1809736000: system.cpu: Tread 0 :: Base : 104657, L1miss : 1033437, Branch : 3162, D1miss : 832429, Wait : 643, Misc : 0, Total : 1974328
1809736000: system.cpu: Tread 1 :: Base : 127751, L1miss : 995284, Branch : 3749, D1miss : 924960, Wait : 888, Misc : 0, Total : 2052632
1859736000: system.cpu: -------------------------------------------------- 
<bad format>1859736000: system.cpu: Total Cycles :: 3700000 
1859736000: system.cpu: Tread 0 :: Base : 107606, L1miss : 1062659, Branch : 3162, D1miss : 855274, Wait : 663, Misc : 0, Total : 2029364
1859736000: system.cpu: Tread 1 :: Base : 131355, L1miss : 1021396, Branch : 3749, D1miss : 950758, Wait : 916, Misc : 0, Total : 2108174
1909736000: system.cpu: -------------------------------------------------- 
<bad format>1909736000: system.cpu: Total Cycles :: 3800000 
1909736000: system.cpu: Tread 0 :: Base : 110420, L1miss : 1091269, Branch : 3162, D1miss : 878027, Wait : 677, Misc : 0, Total : 2083555
1909736000: system.cpu: Tread 1 :: Base : 134839, L1miss : 1048548, Branch : 3749, D1miss : 976189, Wait : 941, Misc : 0, Total : 2164266
1959736000: system.cpu: -------------------------------------------------- 
<bad format>1959736000: system.cpu: Total Cycles :: 3900000 
1959736000: system.cpu: Tread 0 :: Base : 113140, L1miss : 1120222, Branch : 3162, D1miss : 900443, Wait : 693, Misc : 0, Total : 2137660
1959736000: system.cpu: Tread 1 :: Base : 138329, L1miss : 1074876, Branch : 3749, D1miss : 1001958, Wait : 965, Misc : 0, Total : 2219877
2009736000: system.cpu: RESET 0 0 0
2009736000: system.cpu: RESET 0 0 0
2009736000: system.cpu: -------------------------------------------------- 
<bad format>2009736000: system.cpu: Total Cycles :: 4000000 
2009736000: system.cpu: Tread 0 :: Base : 116106, L1miss : 1150087, Branch : 3162, D1miss : 923332, Wait : 713, Misc : 0, Total : 2193400
2009736000: system.cpu: Tread 1 :: Base : 141955, L1miss : 1101495, Branch : 3749, D1miss : 1028232, Wait : 992, Misc : 0, Total : 2276423
2059736000: system.cpu: -------------------------------------------------- 
<bad format>2059736000: system.cpu: Total Cycles :: 4100000 
2059736000: system.cpu: Tread 0 :: Base : 118812, L1miss : 1177068, Branch : 3162, D1miss : 945981, Wait : 724, Misc : 0, Total : 2245747
2059736000: system.cpu: Tread 1 :: Base : 145533, L1miss : 1129293, Branch : 3749, D1miss : 1053474, Wait : 1015, Misc : 0, Total : 2333064
2109736000: system.cpu: -------------------------------------------------- 
<bad format>2109736000: system.cpu: Total Cycles :: 4200000 
2109736000: system.cpu: Tread 0 :: Base : 121428, L1miss : 1203391, Branch : 3162, D1miss : 968522, Wait : 739, Misc : 0, Total : 2297242
2109736000: system.cpu: Tread 1 :: Base : 149038, L1miss : 1155973, Branch : 3749, D1miss : 1079819, Wait : 1043, Misc : 0, Total : 2389622
2159736000: system.cpu: -------------------------------------------------- 
<bad format>2159736000: system.cpu: Total Cycles :: 4300000 
2159736000: system.cpu: Tread 0 :: Base : 124228, L1miss : 1231744, Branch : 3162, D1miss : 991148, Wait : 755, Misc : 0, Total : 2351037
2159736000: system.cpu: Tread 1 :: Base : 152573, L1miss : 1183715, Branch : 3749, D1miss : 1105613, Wait : 1068, Misc : 0, Total : 2446718
2209736000: system.cpu: -------------------------------------------------- 
<bad format>2209736000: system.cpu: Total Cycles :: 4400000 
2209736000: system.cpu: Tread 0 :: Base : 127313, L1miss : 1261515, Branch : 3162, D1miss : 1014098, Wait : 772, Misc : 0, Total : 2406860
2209736000: system.cpu: Tread 1 :: Base : 156058, L1miss : 1210954, Branch : 3749, D1miss : 1131131, Wait : 1095, Misc : 0, Total : 2502987
2259736000: system.cpu: -------------------------------------------------- 
<bad format>2259736000: system.cpu: Total Cycles :: 4500000 
2259736000: system.cpu: Tread 0 :: Base : 129979, L1miss : 1291021, Branch : 3162, D1miss : 1036373, Wait : 789, Misc : 0, Total : 2461324
2259736000: system.cpu: Tread 1 :: Base : 159619, L1miss : 1237871, Branch : 3749, D1miss : 1157105, Wait : 1120, Misc : 0, Total : 2559464
2309736000: system.cpu: -------------------------------------------------- 
<bad format>2309736000: system.cpu: Total Cycles :: 4600000 
2309736000: system.cpu: Tread 0 :: Base : 132673, L1miss : 1319179, Branch : 3162, D1miss : 1058876, Wait : 803, Misc : 0, Total : 2514693
2309736000: system.cpu: Tread 1 :: Base : 163178, L1miss : 1265999, Branch : 3749, D1miss : 1183124, Wait : 1145, Misc : 0, Total : 2617195
2359736000: system.cpu: -------------------------------------------------- 
<bad format>2359736000: system.cpu: Total Cycles :: 4700000 
2359736000: system.cpu: Tread 0 :: Base : 135726, L1miss : 1349027, Branch : 3162, D1miss : 1082037, Wait : 822, Misc : 0, Total : 2570774
2359736000: system.cpu: Tread 1 :: Base : 166523, L1miss : 1291570, Branch : 3749, D1miss : 1208718, Wait : 1172, Misc : 0, Total : 2671732
2409736000: system.cpu: -------------------------------------------------- 
<bad format>2409736000: system.cpu: Total Cycles :: 4800000 
2409736000: system.cpu: Tread 0 :: Base : 138533, L1miss : 1378641, Branch : 3162, D1miss : 1104417, Wait : 837, Misc : 0, Total : 2625590
2409736000: system.cpu: Tread 1 :: Base : 170040, L1miss : 1318611, Branch : 3749, D1miss : 1234174, Wait : 1195, Misc : 0, Total : 2727769
2459736000: system.cpu: -------------------------------------------------- 
<bad format>2459736000: system.cpu: Total Cycles :: 4900000 
2459736000: system.cpu: Tread 0 :: Base : 141193, L1miss : 1407222, Branch : 3162, D1miss : 1126994, Wait : 851, Misc : 0, Total : 2679422
2459736000: system.cpu: Tread 1 :: Base : 173551, L1miss : 1346295, Branch : 3749, D1miss : 1260548, Wait : 1220, Misc : 0, Total : 2785363
2509736000: system.cpu: RESET 0 0 0
2509736000: system.cpu: RESET 0 0 0
2509736000: system.cpu: -------------------------------------------------- 
<bad format>2509736000: system.cpu: Total Cycles :: 5000000 
2509736000: system.cpu: Tread 0 :: Base : 144088, L1miss : 1436377, Branch : 3162, D1miss : 1149767, Wait : 871, Misc : 0, Total : 2734265
2509736000: system.cpu: Tread 1 :: Base : 177073, L1miss : 1372768, Branch : 3749, D1miss : 1286066, Wait : 1249, Misc : 0, Total : 2840905
2559736000: system.cpu: -------------------------------------------------- 
<bad format>2559736000: system.cpu: Total Cycles :: 5100000 
2559736000: system.cpu: Tread 0 :: Base : 146905, L1miss : 1465102, Branch : 3162, D1miss : 1172566, Wait : 884, Misc : 0, Total : 2788619
2559736000: system.cpu: Tread 1 :: Base : 180664, L1miss : 1399542, Branch : 3749, D1miss : 1311705, Wait : 1274, Misc : 0, Total : 2896934
2609736000: system.cpu: -------------------------------------------------- 
<bad format>2609736000: system.cpu: Total Cycles :: 5200000 
2609736000: system.cpu: Tread 0 :: Base : 149593, L1miss : 1490961, Branch : 3162, D1miss : 1194879, Wait : 897, Misc : 0, Total : 2839492
2609736000: system.cpu: Tread 1 :: Base : 184459, L1miss : 1427556, Branch : 3749, D1miss : 1337493, Wait : 1299, Misc : 0, Total : 2954556
2659736000: system.cpu: -------------------------------------------------- 
<bad format>2659736000: system.cpu: Total Cycles :: 5300000 
2659736000: system.cpu: Tread 0 :: Base : 152365, L1miss : 1516741, Branch : 3162, D1miss : 1217851, Wait : 914, Misc : 0, Total : 2891033
2659736000: system.cpu: Tread 1 :: Base : 188214, L1miss : 1455354, Branch : 3749, D1miss : 1363473, Wait : 1327, Misc : 0, Total : 3012117
2709736000: system.cpu: -------------------------------------------------- 
<bad format>2709736000: system.cpu: Total Cycles :: 5400000 
2709736000: system.cpu: Tread 0 :: Base : 155097, L1miss : 1542981, Branch : 3162, D1miss : 1240602, Wait : 927, Misc : 0, Total : 2942769
2709736000: system.cpu: Tread 1 :: Base : 191968, L1miss : 1483375, Branch : 3749, D1miss : 1389218, Wait : 1354, Misc : 0, Total : 3069664
2759736000: system.cpu: -------------------------------------------------- 
<bad format>2759736000: system.cpu: Total Cycles :: 5500000 
2759736000: system.cpu: Tread 0 :: Base : 157764, L1miss : 1570570, Branch : 3162, D1miss : 1263013, Wait : 943, Misc : 0, Total : 2995452
2759736000: system.cpu: Tread 1 :: Base : 195907, L1miss : 1512160, Branch : 3749, D1miss : 1415017, Wait : 1377, Misc : 0, Total : 3128210
2809736000: system.cpu: -------------------------------------------------- 
<bad format>2809736000: system.cpu: Total Cycles :: 5600000 
2809736000: system.cpu: Tread 0 :: Base : 160481, L1miss : 1598634, Branch : 3162, D1miss : 1285443, Wait : 958, Misc : 0, Total : 3048678
2809736000: system.cpu: Tread 1 :: Base : 199714, L1miss : 1540458, Branch : 3749, D1miss : 1441159, Wait : 1405, Misc : 0, Total : 3186485
2859736000: system.cpu: -------------------------------------------------- 
<bad format>2859736000: system.cpu: Total Cycles :: 5700000 
2859736000: system.cpu: Tread 0 :: Base : 163526, L1miss : 1627503, Branch : 3162, D1miss : 1308495, Wait : 976, Misc : 0, Total : 3103662
2859736000: system.cpu: Tread 1 :: Base : 203378, L1miss : 1568086, Branch : 3749, D1miss : 1466555, Wait : 1432, Misc : 0, Total : 3243200
2909736000: system.cpu: -------------------------------------------------- 
<bad format>2909736000: system.cpu: Total Cycles :: 5800000 
2909736000: system.cpu: Tread 0 :: Base : 166245, L1miss : 1657427, Branch : 3162, D1miss : 1330946, Wait : 992, Misc : 0, Total : 3158772
2909736000: system.cpu: Tread 1 :: Base : 207328, L1miss : 1597184, Branch : 3749, D1miss : 1492236, Wait : 1460, Misc : 0, Total : 3301957
2959736000: system.cpu: -------------------------------------------------- 
<bad format>2959736000: system.cpu: Total Cycles :: 5900000 
2959736000: system.cpu: Tread 0 :: Base : 168987, L1miss : 1686293, Branch : 3162, D1miss : 1353305, Wait : 1007, Misc : 0, Total : 3212754
2959736000: system.cpu: Tread 1 :: Base : 211086, L1miss : 1624647, Branch : 3749, D1miss : 1518665, Wait : 1488, Misc : 0, Total : 3359635
3009736000: system.cpu: RESET 0 0 0
3009736000: system.cpu: RESET 0 0 0
3009736000: system.cpu: -------------------------------------------------- 
<bad format>3009736000: system.cpu: Total Cycles :: 6000000 
3009736000: system.cpu: Tread 0 :: Base : 171974, L1miss : 1715406, Branch : 3162, D1miss : 1376511, Wait : 1026, Misc : 0, Total : 3268079
3009736000: system.cpu: Tread 1 :: Base : 214662, L1miss : 1652178, Branch : 3749, D1miss : 1543952, Wait : 1517, Misc : 0, Total : 3416058
3059736000: system.cpu: -------------------------------------------------- 
<bad format>3059736000: system.cpu: Total Cycles :: 6100000 
3059736000: system.cpu: Tread 0 :: Base : 174590, L1miss : 1741370, Branch : 3162, D1miss : 1399044, Wait : 1040, Misc : 0, Total : 3319206
3059736000: system.cpu: Tread 1 :: Base : 218401, L1miss : 1680104, Branch : 3749, D1miss : 1569716, Wait : 1545, Misc : 0, Total : 3473515
3109736000: system.cpu: -------------------------------------------------- 
<bad format>3109736000: system.cpu: Total Cycles :: 6200000 
3109736000: system.cpu: Tread 0 :: Base : 177336, L1miss : 1769953, Branch : 3162, D1miss : 1421338, Wait : 1054, Misc : 0, Total : 3372843
3109736000: system.cpu: Tread 1 :: Base : 222358, L1miss : 1708506, Branch : 3749, D1miss : 1595880, Wait : 1569, Misc : 0, Total : 3532062
3159736000: system.cpu: -------------------------------------------------- 
<bad format>3159736000: system.cpu: Total Cycles :: 6300000 
3159736000: system.cpu: Tread 0 :: Base : 180289, L1miss : 1798722, Branch : 3162, D1miss : 1444288, Wait : 1074, Misc : 0, Total : 3427535
3159736000: system.cpu: Tread 1 :: Base : 226130, L1miss : 1737435, Branch : 3749, D1miss : 1621663, Wait : 1597, Misc : 0, Total : 3590574
3209736000: system.cpu: -------------------------------------------------- 
<bad format>3209736000: system.cpu: Total Cycles :: 6400000 
3209736000: system.cpu: Tread 0 :: Base : 183072, L1miss : 1827977, Branch : 3162, D1miss : 1467023, Wait : 1087, Misc : 0, Total : 3482321
3209736000: system.cpu: Tread 1 :: Base : 229805, L1miss : 1764283, Branch : 3749, D1miss : 1647199, Wait : 1625, Misc : 0, Total : 3646661
3259736000: system.cpu: -------------------------------------------------- 
<bad format>3259736000: system.cpu: Total Cycles :: 6500000 
3259736000: system.cpu: Tread 0 :: Base : 186189, L1miss : 1853469, Branch : 3539, D1miss : 1500545, Wait : 1115, Misc : 0, Total : 3544857
3259736000: system.cpu: Tread 1 :: Base : 233733, L1miss : 1792980, Branch : 4346, D1miss : 1675440, Wait : 1641, Misc : 0, Total : 3708140
3309736000: system.cpu: -------------------------------------------------- 
<bad format>3309736000: system.cpu: Total Cycles :: 6600000 
3309736000: system.cpu: Tread 0 :: Base : 189362, L1miss : 1871826, Branch : 3539, D1miss : 1548443, Wait : 1148, Misc : 0, Total : 3614318
3309736000: system.cpu: Tread 1 :: Base : 237142, L1miss : 1816480, Branch : 4346, D1miss : 1706219, Wait : 1645, Misc : 0, Total : 3765832
3359736000: system.cpu: -------------------------------------------------- 
<bad format>3359736000: system.cpu: Total Cycles :: 6700000 
3359736000: system.cpu: Tread 0 :: Base : 192539, L1miss : 1891003, Branch : 3539, D1miss : 1596681, Wait : 1182, Misc : 0, Total : 3684944
3359736000: system.cpu: Tread 1 :: Base : 240596, L1miss : 1841722, Branch : 4346, D1miss : 1737009, Wait : 1648, Misc : 0, Total : 3825321
3409736000: system.cpu: -------------------------------------------------- 
<bad format>3409736000: system.cpu: Total Cycles :: 6800000 
3409736000: system.cpu: Tread 0 :: Base : 195794, L1miss : 1909671, Branch : 3539, D1miss : 1644662, Wait : 1217, Misc : 0, Total : 3754883
3409736000: system.cpu: Tread 1 :: Base : 244157, L1miss : 1867422, Branch : 4346, D1miss : 1767586, Wait : 1651, Misc : 0, Total : 3885162
3459736000: system.cpu: -------------------------------------------------- 
<bad format>3459736000: system.cpu: Total Cycles :: 6900000 
3459736000: system.cpu: Tread 0 :: Base : 198874, L1miss : 1928343, Branch : 3539, D1miss : 1692745, Wait : 1254, Misc : 0, Total : 3824755
3459736000: system.cpu: Tread 1 :: Base : 247570, L1miss : 1890946, Branch : 4346, D1miss : 1798115, Wait : 1654, Misc : 0, Total : 3942631
3509736000: system.cpu: RESET 0 0 0
3509736000: system.cpu: RESET 0 0 0
3509736000: system.cpu: -------------------------------------------------- 
<bad format>3509736000: system.cpu: Total Cycles :: 7000000 
3509736000: system.cpu: Tread 0 :: Base : 202216, L1miss : 1949537, Branch : 3539, D1miss : 1740809, Wait : 1290, Misc : 0, Total : 3897391
3509736000: system.cpu: Tread 1 :: Base : 250932, L1miss : 1914706, Branch : 4346, D1miss : 1828930, Wait : 1657, Misc : 0, Total : 4000571
3559736000: system.cpu: -------------------------------------------------- 
<bad format>3559736000: system.cpu: Total Cycles :: 7100000 
3559736000: system.cpu: Tread 0 :: Base : 205334, L1miss : 1969783, Branch : 3539, D1miss : 1789132, Wait : 1324, Misc : 0, Total : 3969112
3559736000: system.cpu: Tread 1 :: Base : 254557, L1miss : 1941049, Branch : 4346, D1miss : 1859048, Wait : 1660, Misc : 0, Total : 4060660
3609736000: system.cpu: -------------------------------------------------- 
<bad format>3609736000: system.cpu: Total Cycles :: 7200000 
3609736000: system.cpu: Tread 0 :: Base : 208678, L1miss : 1989560, Branch : 3539, D1miss : 1836885, Wait : 1360, Misc : 0, Total : 4040022
3609736000: system.cpu: Tread 1 :: Base : 257895, L1miss : 1964262, Branch : 4346, D1miss : 1890035, Wait : 1664, Misc : 0, Total : 4118202
3659736000: system.cpu: -------------------------------------------------- 
<bad format>3659736000: system.cpu: Total Cycles :: 7300000 
3659736000: system.cpu: Tread 0 :: Base : 211863, L1miss : 2008079, Branch : 3539, D1miss : 1885259, Wait : 1396, Misc : 0, Total : 4110136
3659736000: system.cpu: Tread 1 :: Base : 261279, L1miss : 1988956, Branch : 4346, D1miss : 1920339, Wait : 1667, Misc : 0, Total : 4176587
3709736000: system.cpu: -------------------------------------------------- 
<bad format>3709736000: system.cpu: Total Cycles :: 7400000 
3709736000: system.cpu: Tread 0 :: Base : 215067, L1miss : 2026533, Branch : 3539, D1miss : 1933856, Wait : 1431, Misc : 0, Total : 4180426
3709736000: system.cpu: Tread 1 :: Base : 264736, L1miss : 2013553, Branch : 4346, D1miss : 1950824, Wait : 1670, Misc : 0, Total : 4235129
3759736000: system.cpu: -------------------------------------------------- 
<bad format>3759736000: system.cpu: Total Cycles :: 7500000 
3759736000: system.cpu: Tread 0 :: Base : 218177, L1miss : 2045346, Branch : 3539, D1miss : 1981656, Wait : 1467, Misc : 0, Total : 4250185
3759736000: system.cpu: Tread 1 :: Base : 268126, L1miss : 2036960, Branch : 4346, D1miss : 1981698, Wait : 1672, Misc : 0, Total : 4292802
3809736000: system.cpu: -------------------------------------------------- 
<bad format>3809736000: system.cpu: Total Cycles :: 7600000 
3809736000: system.cpu: Tread 0 :: Base : 221435, L1miss : 2065931, Branch : 3539, D1miss : 2029789, Wait : 1503, Misc : 0, Total : 4322197
3809736000: system.cpu: Tread 1 :: Base : 271666, L1miss : 2062206, Branch : 4346, D1miss : 2011881, Wait : 1675, Misc : 0, Total : 4351774
3859736000: system.cpu: -------------------------------------------------- 
<bad format>3859736000: system.cpu: Total Cycles :: 7700000 
3859736000: system.cpu: Tread 0 :: Base : 224680, L1miss : 2084789, Branch : 3539, D1miss : 2077813, Wait : 1539, Misc : 0, Total : 4392360
3859736000: system.cpu: Tread 1 :: Base : 275093, L1miss : 2085846, Branch : 4346, D1miss : 2042697, Wait : 1677, Misc : 0, Total : 4409659
3909736000: system.cpu: -------------------------------------------------- 
<bad format>3909736000: system.cpu: Total Cycles :: 7800000 
3909736000: system.cpu: Tread 0 :: Base : 227775, L1miss : 2102615, Branch : 3539, D1miss : 2126123, Wait : 1571, Misc : 0, Total : 4461623
3909736000: system.cpu: Tread 1 :: Base : 278433, L1miss : 2109208, Branch : 4346, D1miss : 2073379, Wait : 1681, Misc : 0, Total : 4467047
3959736000: system.cpu: -------------------------------------------------- 
<bad format>3959736000: system.cpu: Total Cycles :: 7900000 
3959736000: system.cpu: Tread 0 :: Base : 231109, L1miss : 2122017, Branch : 3539, D1miss : 2174007, Wait : 1608, Misc : 0, Total : 4532280
3959736000: system.cpu: Tread 1 :: Base : 281845, L1miss : 2134658, Branch : 4346, D1miss : 2103521, Wait : 1685, Misc : 0, Total : 4526055
4009736000: system.cpu: RESET 0 0 0
4009736000: system.cpu: RESET 0 0 0
4009736000: system.cpu: -------------------------------------------------- 
<bad format>4009736000: system.cpu: Total Cycles :: 8000000 
4009736000: system.cpu: Tread 0 :: Base : 234157, L1miss : 2140361, Branch : 3539, D1miss : 2222519, Wait : 1643, Misc : 0, Total : 4602219
4009736000: system.cpu: Tread 1 :: Base : 285232, L1miss : 2158880, Branch : 4346, D1miss : 2134544, Wait : 1687, Misc : 0, Total : 4584689
4059736000: system.cpu: -------------------------------------------------- 
<bad format>4059736000: system.cpu: Total Cycles :: 8100000 
4059736000: system.cpu: Tread 0 :: Base : 237298, L1miss : 2159546, Branch : 3539, D1miss : 2270764, Wait : 1675, Misc : 0, Total : 4672822
4059736000: system.cpu: Tread 1 :: Base : 288593, L1miss : 2183130, Branch : 4346, D1miss : 2165100, Wait : 1689, Misc : 0, Total : 4642858
4109736000: system.cpu: -------------------------------------------------- 
<bad format>4109736000: system.cpu: Total Cycles :: 8200000 
4109736000: system.cpu: Tread 0 :: Base : 240485, L1miss : 2179006, Branch : 3539, D1miss : 2318935, Wait : 1712, Misc : 0, Total : 4743677
4109736000: system.cpu: Tread 1 :: Base : 292007, L1miss : 2207452, Branch : 4346, D1miss : 2195485, Wait : 1692, Misc : 0, Total : 4700982
4159736000: system.cpu: -------------------------------------------------- 
<bad format>4159736000: system.cpu: Total Cycles :: 8300000 
4159736000: system.cpu: Tread 0 :: Base : 243742, L1miss : 2198088, Branch : 3539, D1miss : 2367032, Wait : 1746, Misc : 0, Total : 4814147
4159736000: system.cpu: Tread 1 :: Base : 295313, L1miss : 2231070, Branch : 4346, D1miss : 2226062, Wait : 1694, Misc : 0, Total : 4758485
4209736000: system.cpu: -------------------------------------------------- 
<bad format>4209736000: system.cpu: Total Cycles :: 8400000 
4209736000: system.cpu: Tread 0 :: Base : 246936, L1miss : 2216559, Branch : 3539, D1miss : 2414883, Wait : 1781, Misc : 0, Total : 4883698
4209736000: system.cpu: Tread 1 :: Base : 298949, L1miss : 2256338, Branch : 4346, D1miss : 2257021, Wait : 1697, Misc : 0, Total : 4818351
4259736000: system.cpu: -------------------------------------------------- 
<bad format>4259736000: system.cpu: Total Cycles :: 8500000 
4259736000: system.cpu: Tread 0 :: Base : 250132, L1miss : 2234994, Branch : 3539, D1miss : 2463210, Wait : 1815, Misc : 0, Total : 4953690
4259736000: system.cpu: Tread 1 :: Base : 302420, L1miss : 2280649, Branch : 4346, D1miss : 2287144, Wait : 1700, Misc : 0, Total : 4876259
4309736000: system.cpu: -------------------------------------------------- 
<bad format>4309736000: system.cpu: Total Cycles :: 8600000 
4309736000: system.cpu: Tread 0 :: Base : 253243, L1miss : 2253813, Branch : 3539, D1miss : 2511201, Wait : 1852, Misc : 0, Total : 5023648
4309736000: system.cpu: Tread 1 :: Base : 305749, L1miss : 2304135, Branch : 4346, D1miss : 2317928, Wait : 1704, Misc : 0, Total : 4933862
4359736000: system.cpu: -------------------------------------------------- 
<bad format>4359736000: system.cpu: Total Cycles :: 8700000 
4359736000: system.cpu: Tread 0 :: Base : 256517, L1miss : 2274566, Branch : 3539, D1miss : 2559581, Wait : 1889, Misc : 0, Total : 5096092
4359736000: system.cpu: Tread 1 :: Base : 309216, L1miss : 2329345, Branch : 4346, D1miss : 2348182, Wait : 1707, Misc : 0, Total : 4992796
4409736000: system.cpu: -------------------------------------------------- 
<bad format>4409736000: system.cpu: Total Cycles :: 8800000 
4409736000: system.cpu: Tread 0 :: Base : 259743, L1miss : 2293302, Branch : 3539, D1miss : 2607955, Wait : 1923, Misc : 0, Total : 5166462
4409736000: system.cpu: Tread 1 :: Base : 312585, L1miss : 2353357, Branch : 4346, D1miss : 2378915, Wait : 1710, Misc : 0, Total : 5050913
4459736000: system.cpu: -------------------------------------------------- 
<bad format>4459736000: system.cpu: Total Cycles :: 8900000 
4459736000: system.cpu: Tread 0 :: Base : 262946, L1miss : 2311826, Branch : 3539, D1miss : 2655736, Wait : 1958, Misc : 0, Total : 5236005
4459736000: system.cpu: Tread 1 :: Base : 315971, L1miss : 2376663, Branch : 4346, D1miss : 2409791, Wait : 1712, Misc : 0, Total : 5108483
4509736000: system.cpu: RESET 0 0 0
4509736000: system.cpu: RESET 0 0 0
4509736000: system.cpu: -------------------------------------------------- 
<bad format>4509736000: system.cpu: Total Cycles :: 9000000 
4509736000: system.cpu: Tread 0 :: Base : 266149, L1miss : 2330349, Branch : 3539, D1miss : 2704093, Wait : 1993, Misc : 0, Total : 5306123
4509736000: system.cpu: Tread 1 :: Base : 319601, L1miss : 2402594, Branch : 4346, D1miss : 2439835, Wait : 1715, Misc : 0, Total : 5168091
4559736000: system.cpu: -------------------------------------------------- 
<bad format>4559736000: system.cpu: Total Cycles :: 9100000 
4559736000: system.cpu: Tread 0 :: Base : 269370, L1miss : 2348944, Branch : 3539, D1miss : 2752085, Wait : 2028, Misc : 0, Total : 5375966
4559736000: system.cpu: Tread 1 :: Base : 322972, L1miss : 2426409, Branch : 4346, D1miss : 2470684, Wait : 1717, Misc : 0, Total : 5226128
4609736000: system.cpu: -------------------------------------------------- 
<bad format>4609736000: system.cpu: Total Cycles :: 9200000 
4609736000: system.cpu: Tread 0 :: Base : 272607, L1miss : 2368367, Branch : 3539, D1miss : 2800460, Wait : 2060, Misc : 0, Total : 5447033
4609736000: system.cpu: Tread 1 :: Base : 326513, L1miss : 2450764, Branch : 4346, D1miss : 2501321, Wait : 1719, Misc : 0, Total : 5284663
4659736000: system.cpu: -------------------------------------------------- 
<bad format>4659736000: system.cpu: Total Cycles :: 9300000 
4659736000: system.cpu: Tread 0 :: Base : 275780, L1miss : 2386711, Branch : 3539, D1miss : 2848129, Wait : 2095, Misc : 0, Total : 5516254
4659736000: system.cpu: Tread 1 :: Base : 330049, L1miss : 2476252, Branch : 4346, D1miss : 2531609, Wait : 1722, Misc : 0, Total : 5343978
4709736000: system.cpu: -------------------------------------------------- 
<bad format>4709736000: system.cpu: Total Cycles :: 9400000 
4709736000: system.cpu: Tread 0 :: Base : 278925, L1miss : 2405584, Branch : 3539, D1miss : 2896848, Wait : 2132, Misc : 0, Total : 5587028
4709736000: system.cpu: Tread 1 :: Base : 333420, L1miss : 2499502, Branch : 4346, D1miss : 2562480, Wait : 1725, Misc : 0, Total : 5401473
4759736000: system.cpu: -------------------------------------------------- 
<bad format>4759736000: system.cpu: Total Cycles :: 9500000 
4759736000: system.cpu: Tread 0 :: Base : 282220, L1miss : 2426628, Branch : 3539, D1miss : 2944966, Wait : 2167, Misc : 0, Total : 5659520
4759736000: system.cpu: Tread 1 :: Base : 336822, L1miss : 2523307, Branch : 4346, D1miss : 2593158, Wait : 1729, Misc : 0, Total : 5459362
4809736000: system.cpu: -------------------------------------------------- 
<bad format>4809736000: system.cpu: Total Cycles :: 9600000 
4809736000: system.cpu: Tread 0 :: Base : 285430, L1miss : 2445093, Branch : 3539, D1miss : 2993037, Wait : 2205, Misc : 0, Total : 5729304
4809736000: system.cpu: Tread 1 :: Base : 340146, L1miss : 2547745, Branch : 4346, D1miss : 2623576, Wait : 1732, Misc : 0, Total : 5517545
4859736000: system.cpu: -------------------------------------------------- 
<bad format>4859736000: system.cpu: Total Cycles :: 9700000 
4859736000: system.cpu: Tread 0 :: Base : 288593, L1miss : 2463673, Branch : 3539, D1miss : 3041196, Wait : 2237, Misc : 0, Total : 5799238
4859736000: system.cpu: Tread 1 :: Base : 343508, L1miss : 2571973, Branch : 4346, D1miss : 2654099, Wait : 1735, Misc : 0, Total : 5575661
4909736000: system.cpu: -------------------------------------------------- 
<bad format>4909736000: system.cpu: Total Cycles :: 9800000 
4909736000: system.cpu: Tread 0 :: Base : 291789, L1miss : 2482117, Branch : 3539, D1miss : 3089117, Wait : 2274, Misc : 0, Total : 5868836
4909736000: system.cpu: Tread 1 :: Base : 347087, L1miss : 2596460, Branch : 4346, D1miss : 2685039, Wait : 1737, Misc : 0, Total : 5634669
4959736000: system.cpu: -------------------------------------------------- 
<bad format>4959736000: system.cpu: Total Cycles :: 9900000 
4959736000: system.cpu: Tread 0 :: Base : 294826, L1miss : 2501146, Branch : 3539, D1miss : 3137681, Wait : 2309, Misc : 0, Total : 5939501
4959736000: system.cpu: Tread 1 :: Base : 350510, L1miss : 2621262, Branch : 4346, D1miss : 2715284, Wait : 1740, Misc : 0, Total : 5693142
5009736000: system.cpu: RESET 0 0 0
5009736000: system.cpu: RESET 0 0 0
5009736000: system.cpu: -------------------------------------------------- 
<bad format>5009736000: system.cpu: Total Cycles :: 10000000 
5009736000: system.cpu: Tread 0 :: Base : 298139, L1miss : 2521462, Branch : 3539, D1miss : 3185312, Wait : 2344, Misc : 0, Total : 6010796
5009736000: system.cpu: Tread 1 :: Base : 353924, L1miss : 2644751, Branch : 4346, D1miss : 2746018, Wait : 1743, Misc : 0, Total : 5750782
5059736000: system.cpu: -------------------------------------------------- 
<bad format>5059736000: system.cpu: Total Cycles :: 10100000 
5059736000: system.cpu: Tread 0 :: Base : 301397, L1miss : 2540933, Branch : 3539, D1miss : 3233810, Wait : 2378, Misc : 0, Total : 6082057
5059736000: system.cpu: Tread 1 :: Base : 357429, L1miss : 2669618, Branch : 4346, D1miss : 2776150, Wait : 1746, Misc : 0, Total : 5809289
5109736000: system.cpu: -------------------------------------------------- 
<bad format>5109736000: system.cpu: Total Cycles :: 10200000 
5109736000: system.cpu: Tread 0 :: Base : 304575, L1miss : 2559223, Branch : 3539, D1miss : 3282141, Wait : 2410, Misc : 0, Total : 6151888
5109736000: system.cpu: Tread 1 :: Base : 360710, L1miss : 2693491, Branch : 4346, D1miss : 2806982, Wait : 1750, Misc : 0, Total : 5867279
5159736000: system.cpu: -------------------------------------------------- 
<bad format>5159736000: system.cpu: Total Cycles :: 10300000 
5159736000: system.cpu: Tread 0 :: Base : 307797, L1miss : 2578735, Branch : 3539, D1miss : 3329945, Wait : 2449, Misc : 0, Total : 6222465
5159736000: system.cpu: Tread 1 :: Base : 364137, L1miss : 2717349, Branch : 4346, D1miss : 2837837, Wait : 1752, Misc : 0, Total : 5925421
5209736000: system.cpu: -------------------------------------------------- 
<bad format>5209736000: system.cpu: Total Cycles :: 10400000 
5209736000: system.cpu: Tread 0 :: Base : 310940, L1miss : 2598622, Branch : 3539, D1miss : 3378267, Wait : 2483, Misc : 0, Total : 6293851
5209736000: system.cpu: Tread 1 :: Base : 367666, L1miss : 2742428, Branch : 4346, D1miss : 2867825, Wait : 1755, Misc : 0, Total : 5984020
5259736000: system.cpu: -------------------------------------------------- 
<bad format>5259736000: system.cpu: Total Cycles :: 10500000 
5259736000: system.cpu: Tread 0 :: Base : 314239, L1miss : 2617815, Branch : 3539, D1miss : 3426291, Wait : 2520, Misc : 0, Total : 6364404
5259736000: system.cpu: Tread 1 :: Base : 371069, L1miss : 2766724, Branch : 4346, D1miss : 2898675, Wait : 1757, Misc : 0, Total : 6042571
5309736000: system.cpu: -------------------------------------------------- 
<bad format>5309736000: system.cpu: Total Cycles :: 10600000 
5309736000: system.cpu: Tread 0 :: Base : 317424, L1miss : 2636184, Branch : 3539, D1miss : 3474723, Wait : 2554, Misc : 0, Total : 6434424
5309736000: system.cpu: Tread 1 :: Base : 374459, L1miss : 2790454, Branch : 4346, D1miss : 2929612, Wait : 1760, Misc : 0, Total : 6100631
5359736000: system.cpu: -------------------------------------------------- 
<bad format>5359736000: system.cpu: Total Cycles :: 10700000 
5359736000: system.cpu: Tread 0 :: Base : 320605, L1miss : 2654684, Branch : 3539, D1miss : 3522254, Wait : 2588, Misc : 0, Total : 6503670
5359736000: system.cpu: Tread 1 :: Base : 377995, L1miss : 2815130, Branch : 4346, D1miss : 2959694, Wait : 1763, Misc : 0, Total : 6158928
5409736000: system.cpu: -------------------------------------------------- 
<bad format>5409736000: system.cpu: Total Cycles :: 10800000 
5409736000: system.cpu: Tread 0 :: Base : 323747, L1miss : 2673585, Branch : 3539, D1miss : 3570998, Wait : 2625, Misc : 0, Total : 6574494
5409736000: system.cpu: Tread 1 :: Base : 381377, L1miss : 2838994, Branch : 4346, D1miss : 2990528, Wait : 1767, Misc : 0, Total : 6217012
5459736000: system.cpu: -------------------------------------------------- 
<bad format>5459736000: system.cpu: Total Cycles :: 10900000 
5459736000: system.cpu: Tread 0 :: Base : 327044, L1miss : 2694602, Branch : 3539, D1miss : 3619203, Wait : 2660, Misc : 0, Total : 6647048
5459736000: system.cpu: Tread 1 :: Base : 384748, L1miss : 2863337, Branch : 4346, D1miss : 3021083, Wait : 1770, Misc : 0, Total : 6275284
5509736000: system.cpu: RESET 0 0 0
5509736000: system.cpu: RESET 0 0 0
5509736000: system.cpu: -------------------------------------------------- 
<bad format>5509736000: system.cpu: Total Cycles :: 11000000 
5509736000: system.cpu: Tread 0 :: Base : 330283, L1miss : 2713296, Branch : 3539, D1miss : 3667177, Wait : 2698, Misc : 0, Total : 6716993
5509736000: system.cpu: Tread 1 :: Base : 388241, L1miss : 2888142, Branch : 4346, D1miss : 3051658, Wait : 1772, Misc : 0, Total : 6334159
5559736000: system.cpu: -------------------------------------------------- 
<bad format>5559736000: system.cpu: Total Cycles :: 11100000 
5559736000: system.cpu: Tread 0 :: Base : 333584, L1miss : 2732608, Branch : 3539, D1miss : 3715269, Wait : 2733, Misc : 0, Total : 6787733
5559736000: system.cpu: Tread 1 :: Base : 391519, L1miss : 2911345, Branch : 4346, D1miss : 3082193, Wait : 1775, Misc : 0, Total : 6391178
5609736000: system.cpu: -------------------------------------------------- 
<bad format>5609736000: system.cpu: Total Cycles :: 11200000 
5609736000: system.cpu: Tread 0 :: Base : 336745, L1miss : 2750900, Branch : 3539, D1miss : 3763351, Wait : 2767, Misc : 0, Total : 6857302
5609736000: system.cpu: Tread 1 :: Base : 395029, L1miss : 2935453, Branch : 4346, D1miss : 3112992, Wait : 1777, Misc : 0, Total : 6449597
5659736000: system.cpu: -------------------------------------------------- 
<bad format>5659736000: system.cpu: Total Cycles :: 11300000 
5659736000: system.cpu: Tread 0 :: Base : 339979, L1miss : 2769560, Branch : 3539, D1miss : 3811927, Wait : 2803, Misc : 0, Total : 6927808
5659736000: system.cpu: Tread 1 :: Base : 398451, L1miss : 2960087, Branch : 4346, D1miss : 3143222, Wait : 1780, Misc : 0, Total : 6507886
5709736000: system.cpu: -------------------------------------------------- 
<bad format>5709736000: system.cpu: Total Cycles :: 11400000 
5709736000: system.cpu: Tread 0 :: Base : 343151, L1miss : 2788737, Branch : 3539, D1miss : 3859400, Wait : 2840, Misc : 0, Total : 6997667
5709736000: system.cpu: Tread 1 :: Base : 401936, L1miss : 2984145, Branch : 4346, D1miss : 3174098, Wait : 1783, Misc : 0, Total : 6566308
5759736000: system.cpu: -------------------------------------------------- 
<bad format>5759736000: system.cpu: Total Cycles :: 11500000 
5759736000: system.cpu: Tread 0 :: Base : 346299, L1miss : 2808707, Branch : 3539, D1miss : 3907887, Wait : 2875, Misc : 0, Total : 7069307
5759736000: system.cpu: Tread 1 :: Base : 405415, L1miss : 3008870, Branch : 4346, D1miss : 3204244, Wait : 1786, Misc : 0, Total : 6624661
5809736000: system.cpu: -------------------------------------------------- 
<bad format>5809736000: system.cpu: Total Cycles :: 11600000 
5809736000: system.cpu: Tread 0 :: Base : 349650, L1miss : 2828230, Branch : 3539, D1miss : 3956379, Wait : 2911, Misc : 0, Total : 7140709
5809736000: system.cpu: Tread 1 :: Base : 408707, L1miss : 3032768, Branch : 4346, D1miss : 3234912, Wait : 1790, Misc : 0, Total : 6682523
5859736000: system.cpu: -------------------------------------------------- 
<bad format>5859736000: system.cpu: Total Cycles :: 11700000 
5859736000: system.cpu: Tread 0 :: Base : 352762, L1miss : 2846192, Branch : 3539, D1miss : 4004187, Wait : 2944, Misc : 0, Total : 7209624
5859736000: system.cpu: Tread 1 :: Base : 412134, L1miss : 3056627, Branch : 4346, D1miss : 3265767, Wait : 1792, Misc : 0, Total : 6740666
5909736000: system.cpu: -------------------------------------------------- 
<bad format>5909736000: system.cpu: Total Cycles :: 11800000 
5909736000: system.cpu: Tread 0 :: Base : 355962, L1miss : 2864703, Branch : 3539, D1miss : 4052008, Wait : 2979, Misc : 0, Total : 7279191
5909736000: system.cpu: Tread 1 :: Base : 415632, L1miss : 3081547, Branch : 4346, D1miss : 3296120, Wait : 1795, Misc : 0, Total : 6799440
5959736000: system.cpu: -------------------------------------------------- 
<bad format>5959736000: system.cpu: Total Cycles :: 11900000 
5959736000: system.cpu: Tread 0 :: Base : 359123, L1miss : 2884600, Branch : 3539, D1miss : 4100371, Wait : 3017, Misc : 0, Total : 7350650
5959736000: system.cpu: Tread 1 :: Base : 418933, L1miss : 3105115, Branch : 4346, D1miss : 3326767, Wait : 1797, Misc : 0, Total : 6856958
6009736000: system.cpu: RESET 0 0 0
6009736000: system.cpu: RESET 0 0 0
6009736000: system.cpu: -------------------------------------------------- 
<bad format>6009736000: system.cpu: Total Cycles :: 12000000 
6009736000: system.cpu: Tread 0 :: Base : 362401, L1miss : 2904620, Branch : 3539, D1miss : 4148965, Wait : 3051, Misc : 0, Total : 7422576
6009736000: system.cpu: Tread 1 :: Base : 422458, L1miss : 3129752, Branch : 4346, D1miss : 3357558, Wait : 1800, Misc : 0, Total : 6915914
6059736000: system.cpu: -------------------------------------------------- 
<bad format>6059736000: system.cpu: Total Cycles :: 12100000 
6059736000: system.cpu: Tread 0 :: Base : 365659, L1miss : 2923707, Branch : 3539, D1miss : 4196505, Wait : 3090, Misc : 0, Total : 7492500
6059736000: system.cpu: Tread 1 :: Base : 425902, L1miss : 3153617, Branch : 4346, D1miss : 3387641, Wait : 1803, Misc : 0, Total : 6973309
6109736000: system.cpu: -------------------------------------------------- 
<bad format>6109736000: system.cpu: Total Cycles :: 12200000 
6109736000: system.cpu: Tread 0 :: Base : 369139, L1miss : 2945757, Branch : 3667, D1miss : 4235176, Wait : 3117, Misc : 0, Total : 7556856
6109736000: system.cpu: Tread 1 :: Base : 428927, L1miss : 3178938, Branch : 4370, D1miss : 3416037, Wait : 1819, Misc : 0, Total : 7030091
6159736000: system.cpu: -------------------------------------------------- 
<bad format>6159736000: system.cpu: Total Cycles :: 12300000 
6159736000: system.cpu: Tread 0 :: Base : 372885, L1miss : 2971257, Branch : 3667, D1miss : 4265886, Wait : 3139, Misc : 0, Total : 7616834
6159736000: system.cpu: Tread 1 :: Base : 431776, L1miss : 3203324, Branch : 4370, D1miss : 3443184, Wait : 1832, Misc : 0, Total : 7084486
6209736000: system.cpu: -------------------------------------------------- 
<bad format>6209736000: system.cpu: Total Cycles :: 12400000 
6209736000: system.cpu: Tread 0 :: Base : 376784, L1miss : 2997007, Branch : 3667, D1miss : 4296178, Wait : 3162, Misc : 0, Total : 7676798
6209736000: system.cpu: Tread 1 :: Base : 434543, L1miss : 3228136, Branch : 4370, D1miss : 3470312, Wait : 1846, Misc : 0, Total : 7139207
6259736000: system.cpu: -------------------------------------------------- 
<bad format>6259736000: system.cpu: Total Cycles :: 12500000 
6259736000: system.cpu: Tread 0 :: Base : 380416, L1miss : 3021292, Branch : 3667, D1miss : 4327183, Wait : 3183, Misc : 0, Total : 7735741
6259736000: system.cpu: Tread 1 :: Base : 437536, L1miss : 3255448, Branch : 4370, D1miss : 3496910, Wait : 1865, Misc : 0, Total : 7196129
6309736000: system.cpu: -------------------------------------------------- 
<bad format>6309736000: system.cpu: Total Cycles :: 12600000 
6309736000: system.cpu: Tread 0 :: Base : 384146, L1miss : 3046312, Branch : 3667, D1miss : 4358181, Wait : 3204, Misc : 0, Total : 7795510
6309736000: system.cpu: Tread 1 :: Base : 440496, L1miss : 3280755, Branch : 4370, D1miss : 3524176, Wait : 1877, Misc : 0, Total : 7251674
6359736000: system.cpu: -------------------------------------------------- 
<bad format>6359736000: system.cpu: Total Cycles :: 12700000 
6359736000: system.cpu: Tread 0 :: Base : 388016, L1miss : 3071698, Branch : 3667, D1miss : 4387689, Wait : 3224, Misc : 0, Total : 7854294
6359736000: system.cpu: Tread 1 :: Base : 443397, L1miss : 3306213, Branch : 4370, D1miss : 3550831, Wait : 1895, Misc : 0, Total : 7306706
6409736000: system.cpu: -------------------------------------------------- 
<bad format>6409736000: system.cpu: Total Cycles :: 12800000 
6409736000: system.cpu: Tread 0 :: Base : 391631, L1miss : 3096345, Branch : 3667, D1miss : 4418433, Wait : 3245, Misc : 0, Total : 7913321
6409736000: system.cpu: Tread 1 :: Base : 446273, L1miss : 3332453, Branch : 4370, D1miss : 3577540, Wait : 1913, Misc : 0, Total : 7362549
6459736000: system.cpu: -------------------------------------------------- 
<bad format>6459736000: system.cpu: Total Cycles :: 12900000 
6459736000: system.cpu: Tread 0 :: Base : 395361, L1miss : 3121833, Branch : 3667, D1miss : 4448560, Wait : 3266, Misc : 0, Total : 7972687
6459736000: system.cpu: Tread 1 :: Base : 449208, L1miss : 3357596, Branch : 4370, D1miss : 3604475, Wait : 1929, Misc : 0, Total : 7417578
6509736000: system.cpu: RESET 0 0 0
6509736000: system.cpu: RESET 0 0 0
6509736000: system.cpu: -------------------------------------------------- 
<bad format>6509736000: system.cpu: Total Cycles :: 13000000 
6509736000: system.cpu: Tread 0 :: Base : 399100, L1miss : 3147277, Branch : 3667, D1miss : 4478788, Wait : 3287, Misc : 0, Total : 8032119
6509736000: system.cpu: Tread 1 :: Base : 452234, L1miss : 3385233, Branch : 4370, D1miss : 3631116, Wait : 1947, Misc : 0, Total : 7474900
6559736000: system.cpu: -------------------------------------------------- 
<bad format>6559736000: system.cpu: Total Cycles :: 13100000 
6559736000: system.cpu: Tread 0 :: Base : 402873, L1miss : 3172728, Branch : 3667, D1miss : 4509922, Wait : 3309, Misc : 0, Total : 8092499
6559736000: system.cpu: Tread 1 :: Base : 455026, L1miss : 3409344, Branch : 4370, D1miss : 3658633, Wait : 1959, Misc : 0, Total : 7529332
6609736000: system.cpu: -------------------------------------------------- 
<bad format>6609736000: system.cpu: Total Cycles :: 13200000 
6609736000: system.cpu: Tread 0 :: Base : 406707, L1miss : 3197839, Branch : 3667, D1miss : 4539462, Wait : 3328, Misc : 0, Total : 8151003
6609736000: system.cpu: Tread 1 :: Base : 457826, L1miss : 3435080, Branch : 4370, D1miss : 3685342, Wait : 1983, Misc : 0, Total : 7584601
6659736000: system.cpu: -------------------------------------------------- 
<bad format>6659736000: system.cpu: Total Cycles :: 13300000 
6659736000: system.cpu: Tread 0 :: Base : 410396, L1miss : 3222969, Branch : 3667, D1miss : 4570315, Wait : 3349, Misc : 0, Total : 8210696
6659736000: system.cpu: Tread 1 :: Base : 460981, L1miss : 3462328, Branch : 4370, D1miss : 3711985, Wait : 2002, Misc : 0, Total : 7641666
6709736000: system.cpu: -------------------------------------------------- 
<bad format>6709736000: system.cpu: Total Cycles :: 13400000 
6709736000: system.cpu: Tread 0 :: Base : 414061, L1miss : 3247995, Branch : 3667, D1miss : 4600284, Wait : 3371, Misc : 0, Total : 8269378
6709736000: system.cpu: Tread 1 :: Base : 463724, L1miss : 3487202, Branch : 4370, D1miss : 3738985, Wait : 2020, Misc : 0, Total : 7696301
6759736000: system.cpu: -------------------------------------------------- 
<bad format>6759736000: system.cpu: Total Cycles :: 13500000 
6759736000: system.cpu: Tread 0 :: Base : 417791, L1miss : 3273418, Branch : 3667, D1miss : 4630460, Wait : 3391, Misc : 0, Total : 8328727
6759736000: system.cpu: Tread 1 :: Base : 466659, L1miss : 3512717, Branch : 4370, D1miss : 3765596, Wait : 2038, Misc : 0, Total : 7751380
6809736000: system.cpu: -------------------------------------------------- 
<bad format>6809736000: system.cpu: Total Cycles :: 13600000 
6809736000: system.cpu: Tread 0 :: Base : 421502, L1miss : 3299196, Branch : 3667, D1miss : 4661816, Wait : 3413, Misc : 0, Total : 8389594
6809736000: system.cpu: Tread 1 :: Base : 469636, L1miss : 3538927, Branch : 4370, D1miss : 3793041, Wait : 2051, Misc : 0, Total : 7808025
6859736000: system.cpu: -------------------------------------------------- 
<bad format>6859736000: system.cpu: Total Cycles :: 13700000 
6859736000: system.cpu: Tread 0 :: Base : 425301, L1miss : 3325360, Branch : 3667, D1miss : 4691234, Wait : 3432, Misc : 0, Total : 8448994
6859736000: system.cpu: Tread 1 :: Base : 472518, L1miss : 3563834, Branch : 4370, D1miss : 3819736, Wait : 2070, Misc : 0, Total : 7862528
6909736000: system.cpu: -------------------------------------------------- 
<bad format>6909736000: system.cpu: Total Cycles :: 13800000 
6909736000: system.cpu: Tread 0 :: Base : 429021, L1miss : 3351095, Branch : 3667, D1miss : 4722040, Wait : 3454, Misc : 0, Total : 8509277
6909736000: system.cpu: Tread 1 :: Base : 475452, L1miss : 3590975, Branch : 4370, D1miss : 3846617, Wait : 2085, Misc : 0, Total : 7919499
6959736000: system.cpu: -------------------------------------------------- 
<bad format>6959736000: system.cpu: Total Cycles :: 13900000 
6959736000: system.cpu: Tread 0 :: Base : 432641, L1miss : 3375864, Branch : 3667, D1miss : 4752171, Wait : 3474, Misc : 0, Total : 8567817
6959736000: system.cpu: Tread 1 :: Base : 478395, L1miss : 3616127, Branch : 4370, D1miss : 3873441, Wait : 2102, Misc : 0, Total : 7974435
7009736000: system.cpu: RESET 0 0 0
7009736000: system.cpu: RESET 0 0 0
7009736000: system.cpu: -------------------------------------------------- 
<bad format>7009736000: system.cpu: Total Cycles :: 14000000 
7009736000: system.cpu: Tread 0 :: Base : 436432, L1miss : 3402065, Branch : 3667, D1miss : 4782126, Wait : 3495, Misc : 0, Total : 8627785
7009736000: system.cpu: Tread 1 :: Base : 481379, L1miss : 3643443, Branch : 4370, D1miss : 3900076, Wait : 2120, Misc : 0, Total : 8031388
7059736000: system.cpu: -------------------------------------------------- 
<bad format>7059736000: system.cpu: Total Cycles :: 14100000 
7059736000: system.cpu: Tread 0 :: Base : 440297, L1miss : 3428060, Branch : 3667, D1miss : 4813520, Wait : 3516, Misc : 0, Total : 8689060
7059736000: system.cpu: Tread 1 :: Base : 484260, L1miss : 3667771, Branch : 4370, D1miss : 3927540, Wait : 2133, Misc : 0, Total : 8086074
7109736000: system.cpu: -------------------------------------------------- 
<bad format>7109736000: system.cpu: Total Cycles :: 14200000 
7109736000: system.cpu: Tread 0 :: Base : 443996, L1miss : 3452792, Branch : 3667, D1miss : 4843432, Wait : 3535, Misc : 0, Total : 8747422
7109736000: system.cpu: Tread 1 :: Base : 487133, L1miss : 3694017, Branch : 4370, D1miss : 3954159, Wait : 2157, Misc : 0, Total : 8141836
7159736000: system.cpu: -------------------------------------------------- 
<bad format>7159736000: system.cpu: Total Cycles :: 14300000 
7159736000: system.cpu: Tread 0 :: Base : 447819, L1miss : 3479158, Branch : 3667, D1miss : 4873935, Wait : 3558, Misc : 0, Total : 8808137
7159736000: system.cpu: Tread 1 :: Base : 489961, L1miss : 3719701, Branch : 4370, D1miss : 3981062, Wait : 2174, Misc : 0, Total : 8197268
7209736000: system.cpu: -------------------------------------------------- 
<bad format>7209736000: system.cpu: Total Cycles :: 14400000 
7209736000: system.cpu: Tread 0 :: Base : 451519, L1miss : 3503580, Branch : 3667, D1miss : 4903880, Wait : 3576, Misc : 0, Total : 8866222
7209736000: system.cpu: Tread 1 :: Base : 492851, L1miss : 3745366, Branch : 4370, D1miss : 4007928, Wait : 2195, Misc : 0, Total : 8252710
7259736000: system.cpu: -------------------------------------------------- 
<bad format>7259736000: system.cpu: Total Cycles :: 14500000 
7259736000: system.cpu: Tread 0 :: Base : 455153, L1miss : 3527355, Branch : 3667, D1miss : 4934032, Wait : 3598, Misc : 0, Total : 8923805
7259736000: system.cpu: Tread 1 :: Base : 495692, L1miss : 3771895, Branch : 4370, D1miss : 4034553, Wait : 2216, Misc : 0, Total : 8308726
7309736000: system.cpu: -------------------------------------------------- 
<bad format>7309736000: system.cpu: Total Cycles :: 14600000 
7309736000: system.cpu: Tread 0 :: Base : 458889, L1miss : 3552965, Branch : 3667, D1miss : 4965409, Wait : 3620, Misc : 0, Total : 8984550
7309736000: system.cpu: Tread 1 :: Base : 498481, L1miss : 3795445, Branch : 4370, D1miss : 4061889, Wait : 2229, Misc : 0, Total : 8362414
7359736000: system.cpu: -------------------------------------------------- 
<bad format>7359736000: system.cpu: Total Cycles :: 14700000 
7359736000: system.cpu: Tread 0 :: Base : 462674, L1miss : 3578960, Branch : 3667, D1miss : 4995240, Wait : 3639, Misc : 0, Total : 9044180
7359736000: system.cpu: Tread 1 :: Base : 501355, L1miss : 3821692, Branch : 4370, D1miss : 4088550, Wait : 2254, Misc : 0, Total : 8418221
7409736000: system.cpu: -------------------------------------------------- 
<bad format>7409736000: system.cpu: Total Cycles :: 14800000 
7409736000: system.cpu: Tread 0 :: Base : 466432, L1miss : 3605057, Branch : 3667, D1miss : 5025647, Wait : 3661, Misc : 0, Total : 9104464
7409736000: system.cpu: Tread 1 :: Base : 504188, L1miss : 3847414, Branch : 4370, D1miss : 4115619, Wait : 2271, Misc : 0, Total : 8473862
7459736000: system.cpu: -------------------------------------------------- 
<bad format>7459736000: system.cpu: Total Cycles :: 14900000 
7459736000: system.cpu: Tread 0 :: Base : 470037, L1miss : 3629717, Branch : 3667, D1miss : 5055573, Wait : 3681, Misc : 0, Total : 9162675
7459736000: system.cpu: Tread 1 :: Base : 507076, L1miss : 3873060, Branch : 4370, D1miss : 4142385, Wait : 2291, Misc : 0, Total : 8529182
7509736000: system.cpu: RESET 0 0 0
7509736000: system.cpu: RESET 0 0 0
7509736000: system.cpu: -------------------------------------------------- 
<bad format>7509736000: system.cpu: Total Cycles :: 15000000 
7509736000: system.cpu: Tread 0 :: Base : 473768, L1miss : 3655486, Branch : 3667, D1miss : 5085731, Wait : 3702, Misc : 0, Total : 9222354
7509736000: system.cpu: Tread 1 :: Base : 509924, L1miss : 3899618, Branch : 4370, D1miss : 4169152, Wait : 2313, Misc : 0, Total : 8585377
7559736000: system.cpu: -------------------------------------------------- 
<bad format>7559736000: system.cpu: Total Cycles :: 15100000 
7559736000: system.cpu: Tread 0 :: Base : 477568, L1miss : 3680209, Branch : 3667, D1miss : 5117121, Wait : 3722, Misc : 0, Total : 9282287
7559736000: system.cpu: Tread 1 :: Base : 512877, L1miss : 3925409, Branch : 4370, D1miss : 4196396, Wait : 2329, Misc : 0, Total : 8641381
7609736000: system.cpu: -------------------------------------------------- 
<bad format>7609736000: system.cpu: Total Cycles :: 15200000 
7609736000: system.cpu: Tread 0 :: Base : 481416, L1miss : 3706095, Branch : 3667, D1miss : 5147035, Wait : 3740, Misc : 0, Total : 9341953
7609736000: system.cpu: Tread 1 :: Base : 515733, L1miss : 3951228, Branch : 4370, D1miss : 4223041, Wait : 2352, Misc : 0, Total : 8696724
7659736000: system.cpu: -------------------------------------------------- 
<bad format>7659736000: system.cpu: Total Cycles :: 15300000 
7659736000: system.cpu: Tread 0 :: Base : 485299, L1miss : 3732798, Branch : 3667, D1miss : 5177536, Wait : 3762, Misc : 0, Total : 9403062
7659736000: system.cpu: Tread 1 :: Base : 518484, L1miss : 3975995, Branch : 4370, D1miss : 4250011, Wait : 2368, Misc : 0, Total : 8751228
7709736000: system.cpu: -------------------------------------------------- 
<bad format>7709736000: system.cpu: Total Cycles :: 15400000 
7709736000: system.cpu: Tread 0 :: Base : 489196, L1miss : 3759647, Branch : 3667, D1miss : 5207285, Wait : 3782, Misc : 0, Total : 9463577
7709736000: system.cpu: Tread 1 :: Base : 521361, L1miss : 4001614, Branch : 4370, D1miss : 4276870, Wait : 2389, Misc : 0, Total : 8806604
7759736000: system.cpu: -------------------------------------------------- 
<bad format>7759736000: system.cpu: Total Cycles :: 15500000 
7759736000: system.cpu: Tread 0 :: Base : 492805, L1miss : 3783870, Branch : 3667, D1miss : 5237642, Wait : 3801, Misc : 0, Total : 9521785
7759736000: system.cpu: Tread 1 :: Base : 524230, L1miss : 4028261, Branch : 4370, D1miss : 4303626, Wait : 2410, Misc : 0, Total : 8862897
7809736000: system.cpu: -------------------------------------------------- 
<bad format>7809736000: system.cpu: Total Cycles :: 15600000 
7809736000: system.cpu: Tread 0 :: Base : 496439, L1miss : 3808372, Branch : 3667, D1miss : 5268824, Wait : 3822, Misc : 0, Total : 9581124
7809736000: system.cpu: Tread 1 :: Base : 527119, L1miss : 4052841, Branch : 4370, D1miss : 4330748, Wait : 2425, Misc : 0, Total : 8917503
7859736000: system.cpu: -------------------------------------------------- 
<bad format>7859736000: system.cpu: Total Cycles :: 15700000 
7859736000: system.cpu: Tread 0 :: Base : 500306, L1miss : 3833641, Branch : 3667, D1miss : 5298763, Wait : 3843, Misc : 0, Total : 9640220
7859736000: system.cpu: Tread 1 :: Base : 529956, L1miss : 4078939, Branch : 4370, D1miss : 4357592, Wait : 2448, Misc : 0, Total : 8973305
7909736000: system.cpu: -------------------------------------------------- 
<bad format>7909736000: system.cpu: Total Cycles :: 15800000 
7909736000: system.cpu: Tread 0 :: Base : 504027, L1miss : 3858878, Branch : 3667, D1miss : 5329258, Wait : 3865, Misc : 0, Total : 9699695
7909736000: system.cpu: Tread 1 :: Base : 532812, L1miss : 4104668, Branch : 4370, D1miss : 4384568, Wait : 2466, Misc : 0, Total : 9028884
7959736000: system.cpu: -------------------------------------------------- 
<bad format>7959736000: system.cpu: Total Cycles :: 15900000 
7959736000: system.cpu: Tread 0 :: Base : 507749, L1miss : 3884357, Branch : 3667, D1miss : 5359204, Wait : 3885, Misc : 0, Total : 9758862
7959736000: system.cpu: Tread 1 :: Base : 535687, L1miss : 4130570, Branch : 4370, D1miss : 4411326, Wait : 2487, Misc : 0, Total : 9084440
8009736000: system.cpu: RESET 0 0 0
8009736000: system.cpu: RESET 0 0 0
8009736000: system.cpu: -------------------------------------------------- 
<bad format>8009736000: system.cpu: Total Cycles :: 16000000 
8009736000: system.cpu: Tread 0 :: Base : 511408, L1miss : 3909542, Branch : 3667, D1miss : 5389341, Wait : 3905, Misc : 0, Total : 9817863
8009736000: system.cpu: Tread 1 :: Base : 538558, L1miss : 4156931, Branch : 4370, D1miss : 4438128, Wait : 2507, Misc : 0, Total : 9140494
8059736000: system.cpu: -------------------------------------------------- 
<bad format>8059736000: system.cpu: Total Cycles :: 16100000 
8059736000: system.cpu: Tread 0 :: Base : 514915, L1miss : 3932895, Branch : 3667, D1miss : 5420442, Wait : 3924, Misc : 0, Total : 9875843
8059736000: system.cpu: Tread 1 :: Base : 541542, L1miss : 4183030, Branch : 4370, D1miss : 4465099, Wait : 2522, Misc : 0, Total : 9196563
8109736000: system.cpu: -------------------------------------------------- 
<bad format>8109736000: system.cpu: Total Cycles :: 16200000 
8109736000: system.cpu: Tread 0 :: Base : 518710, L1miss : 3958935, Branch : 3667, D1miss : 5450642, Wait : 3945, Misc : 0, Total : 9935899
8109736000: system.cpu: Tread 1 :: Base : 544442, L1miss : 4208079, Branch : 4370, D1miss : 4492143, Wait : 2538, Misc : 0, Total : 9251572
8159736000: system.cpu: -------------------------------------------------- 
<bad format>8159736000: system.cpu: Total Cycles :: 16300000 
8159736000: system.cpu: Tread 0 :: Base : 522526, L1miss : 3985367, Branch : 3667, D1miss : 5481160, Wait : 3966, Misc : 0, Total : 9996686
8159736000: system.cpu: Tread 1 :: Base : 547286, L1miss : 4234604, Branch : 4370, D1miss : 4518963, Wait : 2554, Misc : 0, Total : 9307777
8209736000: system.cpu: -------------------------------------------------- 
<bad format>8209736000: system.cpu: Total Cycles :: 16400000 
8209736000: system.cpu: Tread 0 :: Base : 526153, L1miss : 4010158, Branch : 3667, D1miss : 5510886, Wait : 3986, Misc : 0, Total : 10054850
8209736000: system.cpu: Tread 1 :: Base : 550276, L1miss : 4260214, Branch : 4370, D1miss : 4545850, Wait : 2572, Misc : 0, Total : 9363282
8259736000: system.cpu: -------------------------------------------------- 
<bad format>8259736000: system.cpu: Total Cycles :: 16500000 
8259736000: system.cpu: Tread 0 :: Base : 529929, L1miss : 4036279, Branch : 3667, D1miss : 5541241, Wait : 4006, Misc : 0, Total : 10115122
8259736000: system.cpu: Tread 1 :: Base : 553214, L1miss : 4287039, Branch : 4370, D1miss : 4572524, Wait : 2589, Misc : 0, Total : 9419736
8309736000: system.cpu: -------------------------------------------------- 
<bad format>8309736000: system.cpu: Total Cycles :: 16600000 
8309736000: system.cpu: Tread 0 :: Base : 533558, L1miss : 4061142, Branch : 3667, D1miss : 5572218, Wait : 4028, Misc : 0, Total : 10174613
8309736000: system.cpu: Tread 1 :: Base : 556179, L1miss : 4312497, Branch : 4370, D1miss : 4599463, Wait : 2603, Misc : 0, Total : 9475112
8359736000: system.cpu: -------------------------------------------------- 
<bad format>8359736000: system.cpu: Total Cycles :: 16700000 
8359736000: system.cpu: Tread 0 :: Base : 537386, L1miss : 4087526, Branch : 3667, D1miss : 5602417, Wait : 4049, Misc : 0, Total : 10235045
8359736000: system.cpu: Tread 1 :: Base : 559081, L1miss : 4337564, Branch : 4370, D1miss : 4626618, Wait : 2619, Misc : 0, Total : 9530252
8409736000: system.cpu: -------------------------------------------------- 
<bad format>8409736000: system.cpu: Total Cycles :: 16800000 
8409736000: system.cpu: Tread 0 :: Base : 541066, L1miss : 4113010, Branch : 3667, D1miss : 5632661, Wait : 4070, Misc : 0, Total : 10294474
8409736000: system.cpu: Tread 1 :: Base : 562072, L1miss : 4365256, Branch : 4370, D1miss : 4653512, Wait : 2636, Misc : 0, Total : 9587846
8459736000: system.cpu: -------------------------------------------------- 
<bad format>8459736000: system.cpu: Total Cycles :: 16900000 
8459736000: system.cpu: Tread 0 :: Base : 544691, L1miss : 4137783, Branch : 3667, D1miss : 5662736, Wait : 4089, Misc : 0, Total : 10352966
8459736000: system.cpu: Tread 1 :: Base : 564991, L1miss : 4390041, Branch : 4370, D1miss : 4680295, Wait : 2653, Misc : 0, Total : 9642350
8509736000: system.cpu: RESET 0 0 0
8509736000: system.cpu: RESET 0 0 0
8509736000: system.cpu: -------------------------------------------------- 
<bad format>8509736000: system.cpu: Total Cycles :: 17000000 
8509736000: system.cpu: Tread 0 :: Base : 548525, L1miss : 4164223, Branch : 3667, D1miss : 5692955, Wait : 4110, Misc : 0, Total : 10413480
8509736000: system.cpu: Tread 1 :: Base : 567942, L1miss : 4417186, Branch : 4370, D1miss : 4707078, Wait : 2670, Misc : 0, Total : 9699246
8559736000: system.cpu: -------------------------------------------------- 
<bad format>8559736000: system.cpu: Total Cycles :: 17100000 
8559736000: system.cpu: Tread 0 :: Base : 552369, L1miss : 4190843, Branch : 3667, D1miss : 5723845, Wait : 4130, Misc : 0, Total : 10474854
8559736000: system.cpu: Tread 1 :: Base : 570845, L1miss : 4442169, Branch : 4370, D1miss : 4733975, Wait : 2685, Misc : 0, Total : 9754044
8609736000: system.cpu: -------------------------------------------------- 
<bad format>8609736000: system.cpu: Total Cycles :: 17200000 
8609736000: system.cpu: Tread 0 :: Base : 556093, L1miss : 4215523, Branch : 3667, D1miss : 5754252, Wait : 4153, Misc : 0, Total : 10533688
8609736000: system.cpu: Tread 1 :: Base : 573706, L1miss : 4468567, Branch : 4370, D1miss : 4761114, Wait : 2707, Misc : 0, Total : 9810464
8659736000: system.cpu: -------------------------------------------------- 
<bad format>8659736000: system.cpu: Total Cycles :: 17300000 
8659736000: system.cpu: Tread 0 :: Base : 559746, L1miss : 4240526, Branch : 3667, D1miss : 5784556, Wait : 4173, Misc : 0, Total : 10592668
8659736000: system.cpu: Tread 1 :: Base : 576536, L1miss : 4494033, Branch : 4370, D1miss : 4787904, Wait : 2725, Misc : 0, Total : 9865568
8709736000: system.cpu: -------------------------------------------------- 
<bad format>8709736000: system.cpu: Total Cycles :: 17400000 
8709736000: system.cpu: Tread 0 :: Base : 563564, L1miss : 4265783, Branch : 3667, D1miss : 5814497, Wait : 4193, Misc : 0, Total : 10651704
8709736000: system.cpu: Tread 1 :: Base : 579463, L1miss : 4520303, Branch : 4370, D1miss : 4814877, Wait : 2746, Misc : 0, Total : 9921759
8759736000: system.cpu: -------------------------------------------------- 
<bad format>8759736000: system.cpu: Total Cycles :: 17500000 
8759736000: system.cpu: Tread 0 :: Base : 567216, L1miss : 4289819, Branch : 3667, D1miss : 5844968, Wait : 4213, Misc : 0, Total : 10709883
8759736000: system.cpu: Tread 1 :: Base : 582308, L1miss : 4546531, Branch : 4370, D1miss : 4841470, Wait : 2767, Misc : 0, Total : 9977446
8809736000: system.cpu: -------------------------------------------------- 
<bad format>8809736000: system.cpu: Total Cycles :: 17600000 
8809736000: system.cpu: Tread 0 :: Base : 570871, L1miss : 4315011, Branch : 3667, D1miss : 5875558, Wait : 4234, Misc : 0, Total : 10769341
8809736000: system.cpu: Tread 1 :: Base : 585115, L1miss : 4570347, Branch : 4370, D1miss : 4868329, Wait : 2782, Misc : 0, Total : 10030943
8859736000: system.cpu: -------------------------------------------------- 
<bad format>8859736000: system.cpu: Total Cycles :: 17700000 
8859736000: system.cpu: Tread 0 :: Base : 574637, L1miss : 4340816, Branch : 3667, D1miss : 5905971, Wait : 4256, Misc : 0, Total : 10829347
8859736000: system.cpu: Tread 1 :: Base : 587978, L1miss : 4596729, Branch : 4370, D1miss : 4895564, Wait : 2804, Misc : 0, Total : 10087445
8909736000: system.cpu: -------------------------------------------------- 
<bad format>8909736000: system.cpu: Total Cycles :: 17800000 
8909736000: system.cpu: Tread 0 :: Base : 578484, L1miss : 4367460, Branch : 3667, D1miss : 5936289, Wait : 4277, Misc : 0, Total : 10890177
8909736000: system.cpu: Tread 1 :: Base : 590777, L1miss : 4621815, Branch : 4370, D1miss : 4922476, Wait : 2821, Misc : 0, Total : 10142259
8959736000: system.cpu: -------------------------------------------------- 
<bad format>8959736000: system.cpu: Total Cycles :: 17900000 
8959736000: system.cpu: Tread 0 :: Base : 582083, L1miss : 4391986, Branch : 3667, D1miss : 5966343, Wait : 4297, Misc : 0, Total : 10948376
8959736000: system.cpu: Tread 1 :: Base : 593682, L1miss : 4647993, Branch : 4370, D1miss : 4949270, Wait : 2842, Misc : 0, Total : 10198157
Loading Input Data
Loading Input Data
Duplicating 652307 bytes
Duplicating 652307 bytes
9012061500: system.cpu: RESET 0 0 0
9012061500: system.cpu: RESET 0 0 0
9012061500: system.cpu: -------------------------------------------------- 
<bad format>9012061500: system.cpu: Total Cycles :: 18000000 
9012061500: system.cpu: Tread 0 :: Base : 585586, L1miss : 4439044, Branch : 4453, D1miss : 5980604, Wait : 4328, Misc : 0, Total : 11014015
9012061500: system.cpu: Tread 1 :: Base : 596277, L1miss : 4693135, Branch : 5674, D1miss : 4961385, Wait : 2872, Misc : 0, Total : 10259343
9062061500: system.cpu: -------------------------------------------------- 
<bad format>9062061500: system.cpu: Total Cycles :: 18100000 
9062061500: system.cpu: Tread 0 :: Base : 586476, L1miss : 4459815, Branch : 4453, D1miss : 5980647, Wait : 4356, Misc : 0, Total : 11035747
9062061500: system.cpu: Tread 1 :: Base : 597286, L1miss : 4714865, Branch : 5674, D1miss : 4961471, Wait : 2909, Misc : 0, Total : 10282205
9112061500: system.cpu: -------------------------------------------------- 
<bad format>9112061500: system.cpu: Total Cycles :: 18200000 
9112061500: system.cpu: Tread 0 :: Base : 587779, L1miss : 4487174, Branch : 4453, D1miss : 5980765, Wait : 4367, Misc : 0, Total : 11064538
9112061500: system.cpu: Tread 1 :: Base : 598429, L1miss : 4743050, Branch : 5674, D1miss : 4961555, Wait : 2924, Misc : 0, Total : 10311632
9162061500: system.cpu: -------------------------------------------------- 
<bad format>9162061500: system.cpu: Total Cycles :: 18300000 
9162061500: system.cpu: Tread 0 :: Base : 587779, L1miss : 4487174, Branch : 4453, D1miss : 5980900, Wait : 4367, Misc : 0, Total : 11064673
9162061500: system.cpu: Tread 1 :: Base : 598959, L1miss : 4754831, Branch : 5674, D1miss : 4961686, Wait : 2927, Misc : 0, Total : 10324077
9212061500: system.cpu: -------------------------------------------------- 
<bad format>9212061500: system.cpu: Total Cycles :: 18400000 
9212061500: system.cpu: Tread 0 :: Base : 589076, L1miss : 4514469, Branch : 4453, D1miss : 5980985, Wait : 4379, Misc : 0, Total : 11093362
9212061500: system.cpu: Tread 1 :: Base : 599587, L1miss : 4770698, Branch : 5674, D1miss : 4961772, Wait : 2935, Misc : 0, Total : 10340666
9262061500: system.cpu: -------------------------------------------------- 
<bad format>9262061500: system.cpu: Total Cycles :: 18500000 
9262061500: system.cpu: Tread 0 :: Base : 590187, L1miss : 4542027, Branch : 4453, D1miss : 5981049, Wait : 4392, Misc : 0, Total : 11122108
9262061500: system.cpu: Tread 1 :: Base : 600861, L1miss : 4798468, Branch : 5674, D1miss : 4961836, Wait : 2954, Misc : 0, Total : 10369793
9312061500: system.cpu: -------------------------------------------------- 
<bad format>9312061500: system.cpu: Total Cycles :: 18600000 
9312061500: system.cpu: Tread 0 :: Base : 590189, L1miss : 4542184, Branch : 4453, D1miss : 5981126, Wait : 4392, Misc : 0, Total : 11122344
9312061500: system.cpu: Tread 1 :: Base : 601404, L1miss : 4808619, Branch : 5674, D1miss : 4961940, Wait : 2965, Misc : 0, Total : 10380602
9362061500: system.cpu: -------------------------------------------------- 
<bad format>9362061500: system.cpu: Total Cycles :: 18700000 
9362061500: system.cpu: Tread 0 :: Base : 591340, L1miss : 4569839, Branch : 4453, D1miss : 5981212, Wait : 4399, Misc : 0, Total : 11151243
9362061500: system.cpu: Tread 1 :: Base : 601420, L1miss : 4808795, Branch : 5674, D1miss : 4962004, Wait : 2965, Misc : 0, Total : 10380858
9412061500: system.cpu: -------------------------------------------------- 
<bad format>9412061500: system.cpu: Total Cycles :: 18800000 
[...]
441363825500: system.cpu: -------------------------------------------------- 
<bad format>441363825500: system.cpu: Total Cycles :: 882700000 
441363825500: system.cpu: Tread 0 :: Base : 43909806, L1miss : 265174348, Branch : 35944803, D1miss : 52112751, Wait : 2144715, Misc : 0, Total : 399286423
441363825500: system.cpu: Tread 1 :: Base : 44002444, L1miss : 265505520, Branch : 35704771, D1miss : 51268132, Wait : 2247813, Misc : 0, Total : 398728680
441413825500: system.cpu: -------------------------------------------------- 
<bad format>441413825500: system.cpu: Total Cycles :: 882800000 
441413825500: system.cpu: Tread 0 :: Base : 43920050, L1miss : 265230068, Branch : 35949449, D1miss : 52121941, Wait : 2145684, Misc : 0, Total : 399367192
441413825500: system.cpu: Tread 1 :: Base : 44012580, L1miss : 265557224, Branch : 35711148, D1miss : 51281069, Wait : 2248814, Misc : 0, Total : 398810835
441463825500: system.cpu: -------------------------------------------------- 
<bad format>441463825500: system.cpu: Total Cycles :: 882900000 
441463825500: system.cpu: Tread 0 :: Base : 43930480, L1miss : 265284042, Branch : 35953496, D1miss : 52134986, Wait : 2146665, Misc : 0, Total : 399449669
441463825500: system.cpu: Tread 1 :: Base : 44022140, L1miss : 265614436, Branch : 35717625, D1miss : 51290732, Wait : 2249818, Misc : 0, Total : 398894751
441513825500: system.cpu: RESET 0 0 0
441513825500: system.cpu: RESET 0 0 0
441513825500: system.cpu: -------------------------------------------------- 
<bad format>441513825500: system.cpu: Total Cycles :: 883000000 
441513825500: system.cpu: Tread 0 :: Base : 43941021, L1miss : 265340459, Branch : 35958076, D1miss : 52149337, Wait : 2147521, Misc : 0, Total : 399536414
441513825500: system.cpu: Tread 1 :: Base : 44031029, L1miss : 265667645, Branch : 35723643, D1miss : 51304816, Wait : 2250586, Misc : 0, Total : 398977719
441563825500: system.cpu: -------------------------------------------------- 
<bad format>441563825500: system.cpu: Total Cycles :: 883100000 
441563825500: system.cpu: Tread 0 :: Base : 43951326, L1miss : 265393710, Branch : 35963449, D1miss : 52163624, Wait : 2148412, Misc : 0, Total : 399620521
441563825500: system.cpu: Tread 1 :: Base : 44040728, L1miss : 265726665, Branch : 35731509, D1miss : 51314581, Wait : 2251714, Misc : 0, Total : 399065197
441613825500: system.cpu: -------------------------------------------------- 
<bad format>441613825500: system.cpu: Total Cycles :: 883200000 
441613825500: system.cpu: Tread 0 :: Base : 43960929, L1miss : 265450440, Branch : 35967833, D1miss : 52175725, Wait : 2149243, Misc : 0, Total : 399704170
441613825500: system.cpu: Tread 1 :: Base : 44051437, L1miss : 265782836, Branch : 35736386, D1miss : 51326952, Wait : 2252744, Misc : 0, Total : 399150355
441663825500: system.cpu: -------------------------------------------------- 
<bad format>441663825500: system.cpu: Total Cycles :: 883300000 
441663825500: system.cpu: Tread 0 :: Base : 43971617, L1miss : 265503357, Branch : 35973361, D1miss : 52187872, Wait : 2150301, Misc : 0, Total : 399786508
441663825500: system.cpu: Tread 1 :: Base : 44060355, L1miss : 265836396, Branch : 35741180, D1miss : 51335306, Wait : 2253675, Misc : 0, Total : 399226912
441713825500: system.cpu: -------------------------------------------------- 
<bad format>441713825500: system.cpu: Total Cycles :: 883400000 
441713825500: system.cpu: Tread 0 :: Base : 43981427, L1miss : 265558908, Branch : 35978818, D1miss : 52196390, Wait : 2151287, Misc : 0, Total : 399866830
441713825500: system.cpu: Tread 1 :: Base : 44071657, L1miss : 265890180, Branch : 35745946, D1miss : 51347288, Wait : 2254889, Misc : 0, Total : 399309960
441763825500: system.cpu: -------------------------------------------------- 
<bad format>441763825500: system.cpu: Total Cycles :: 883500000 
441763825500: system.cpu: Tread 0 :: Base : 43990604, L1miss : 265614113, Branch : 35984555, D1miss : 52207389, Wait : 2152152, Misc : 0, Total : 399948813
441763825500: system.cpu: Tread 1 :: Base : 44082027, L1miss : 265945087, Branch : 35751157, D1miss : 51358679, Wait : 2255964, Misc : 0, Total : 399392914
441813825500: system.cpu: -------------------------------------------------- 
<bad format>441813825500: system.cpu: Total Cycles :: 883600000 
441813825500: system.cpu: Tread 0 :: Base : 44000825, L1miss : 265671215, Branch : 35991017, D1miss : 52217503, Wait : 2153354, Misc : 0, Total : 400033914
441813825500: system.cpu: Tread 1 :: Base : 44092016, L1miss : 265997333, Branch : 35757494, D1miss : 51370615, Wait : 2256991, Misc : 0, Total : 399474449
441863825500: system.cpu: -------------------------------------------------- 
<bad format>441863825500: system.cpu: Total Cycles :: 883700000 
441863825500: system.cpu: Tread 0 :: Base : 44009515, L1miss : 265727201, Branch : 35996490, D1miss : 52227037, Wait : 2154207, Misc : 0, Total : 400114450
441863825500: system.cpu: Tread 1 :: Base : 44101796, L1miss : 266049640, Branch : 35762477, D1miss : 51381992, Wait : 2257851, Misc : 0, Total : 399553756
441913825500: system.cpu: -------------------------------------------------- 
<bad format>441913825500: system.cpu: Total Cycles :: 883800000 
441913825500: system.cpu: Tread 0 :: Base : 44019516, L1miss : 265782002, Branch : 36002055, D1miss : 52237894, Wait : 2155154, Misc : 0, Total : 400196621
441913825500: system.cpu: Tread 1 :: Base : 44111920, L1miss : 266102237, Branch : 35768326, D1miss : 51394497, Wait : 2258837, Misc : 0, Total : 399635817
441963825500: system.cpu: -------------------------------------------------- 
<bad format>441963825500: system.cpu: Total Cycles :: 883900000 
441963825500: system.cpu: Tread 0 :: Base : 44028887, L1miss : 265834947, Branch : 36006637, D1miss : 52250330, Wait : 2155961, Misc : 0, Total : 400276762
441963825500: system.cpu: Tread 1 :: Base : 44121727, L1miss : 266158271, Branch : 35773432, D1miss : 51406277, Wait : 2259744, Misc : 0, Total : 399719451
442013825500: system.cpu: RESET 0 0 0
442013825500: system.cpu: RESET 0 0 0
442013825500: system.cpu: -------------------------------------------------- 
<bad format>442013825500: system.cpu: Total Cycles :: 884000000 
442013825500: system.cpu: Tread 0 :: Base : 44039491, L1miss : 265888403, Branch : 36012278, D1miss : 52261794, Wait : 2156921, Misc : 0, Total : 400358887
442013825500: system.cpu: Tread 1 :: Base : 44131619, L1miss : 266215545, Branch : 35779590, D1miss : 51416338, Wait : 2260734, Misc : 0, Total : 399803826
442063825500: system.cpu: -------------------------------------------------- 
<bad format>442063825500: system.cpu: Total Cycles :: 884100000 
442063825500: system.cpu: Tread 0 :: Base : 44050985, L1miss : 265945833, Branch : 36017419, D1miss : 52273214, Wait : 2158008, Misc : 0, Total : 400445459
442063825500: system.cpu: Tread 1 :: Base : 44141347, L1miss : 266273439, Branch : 35784958, D1miss : 51425287, Wait : 2261748, Misc : 0, Total : 399886779
442113825500: system.cpu: -------------------------------------------------- 
<bad format>442113825500: system.cpu: Total Cycles :: 884200000 
442113825500: system.cpu: Tread 0 :: Base : 44062143, L1miss : 266000455, Branch : 36022114, D1miss : 52284869, Wait : 2159107, Misc : 0, Total : 400528688
442113825500: system.cpu: Tread 1 :: Base : 44150645, L1miss : 266329660, Branch : 35790765, D1miss : 51433763, Wait : 2262717, Misc : 0, Total : 399967550
442163825500: system.cpu: -------------------------------------------------- 
<bad format>442163825500: system.cpu: Total Cycles :: 884300000 
442163825500: system.cpu: Tread 0 :: Base : 44071893, L1miss : 266059394, Branch : 36026730, D1miss : 52294407, Wait : 2160077, Misc : 0, Total : 400612501
442163825500: system.cpu: Tread 1 :: Base : 44161102, L1miss : 266384001, Branch : 35795479, D1miss : 51447811, Wait : 2263663, Misc : 0, Total : 400052056
442213825500: system.cpu: -------------------------------------------------- 
<bad format>442213825500: system.cpu: Total Cycles :: 884400000 
442213825500: system.cpu: Tread 0 :: Base : 44082047, L1miss : 266115892, Branch : 36031786, D1miss : 52303755, Wait : 2161029, Misc : 0, Total : 400694509
442213825500: system.cpu: Tread 1 :: Base : 44171866, L1miss : 266437060, Branch : 35800502, D1miss : 51459849, Wait : 2264697, Misc : 0, Total : 400133974
442263825500: system.cpu: -------------------------------------------------- 
<bad format>442263825500: system.cpu: Total Cycles :: 884500000 
442263825500: system.cpu: Tread 0 :: Base : 44091876, L1miss : 266171636, Branch : 36037011, D1miss : 52313810, Wait : 2162030, Misc : 0, Total : 400776363
442263825500: system.cpu: Tread 1 :: Base : 44182809, L1miss : 266493341, Branch : 35805690, D1miss : 51471224, Wait : 2265885, Misc : 0, Total : 400218949
442313825500: system.cpu: -------------------------------------------------- 
<bad format>442313825500: system.cpu: Total Cycles :: 884600000 
442313825500: system.cpu: Tread 0 :: Base : 44101989, L1miss : 266227287, Branch : 36041212, D1miss : 52325550, Wait : 2162995, Misc : 0, Total : 400859033
442313825500: system.cpu: Tread 1 :: Base : 44193952, L1miss : 266550841, Branch : 35810865, D1miss : 51483867, Wait : 2267059, Misc : 0, Total : 400306584
442363825500: system.cpu: -------------------------------------------------- 
<bad format>442363825500: system.cpu: Total Cycles :: 884700000 
442363825500: system.cpu: Tread 0 :: Base : 44113105, L1miss : 266282004, Branch : 36047498, D1miss : 52335751, Wait : 2164152, Misc : 0, Total : 400942510
442363825500: system.cpu: Tread 1 :: Base : 44205245, L1miss : 266608792, Branch : 35815919, D1miss : 51492630, Wait : 2268335, Misc : 0, Total : 400390921
442413825500: system.cpu: -------------------------------------------------- 
<bad format>442413825500: system.cpu: Total Cycles :: 884800000 
442413825500: system.cpu: Tread 0 :: Base : 44124142, L1miss : 266334549, Branch : 36053683, D1miss : 52345740, Wait : 2165190, Misc : 0, Total : 401023304
442413825500: system.cpu: Tread 1 :: Base : 44215696, L1miss : 266664139, Branch : 35821243, D1miss : 51501004, Wait : 2269528, Misc : 0, Total : 400471610
442463825500: system.cpu: -------------------------------------------------- 
<bad format>442463825500: system.cpu: Total Cycles :: 884900000 
442463825500: system.cpu: Tread 0 :: Base : 44135205, L1miss : 266387387, Branch : 36059157, D1miss : 52358275, Wait : 2166277, Misc : 0, Total : 401106301
442463825500: system.cpu: Tread 1 :: Base : 44224799, L1miss : 266719485, Branch : 35826496, D1miss : 51509998, Wait : 2270517, Misc : 0, Total : 400551295
442513825500: system.cpu: RESET 0 0 0
442513825500: system.cpu: RESET 0 0 0
442513825500: system.cpu: -------------------------------------------------- 
<bad format>442513825500: system.cpu: Total Cycles :: 885000000 
442513825500: system.cpu: Tread 0 :: Base : 44145587, L1miss : 266444160, Branch : 36065488, D1miss : 52367241, Wait : 2167274, Misc : 0, Total : 401189750
442513825500: system.cpu: Tread 1 :: Base : 44236338, L1miss : 266775884, Branch : 35831331, D1miss : 51521433, Wait : 2271657, Misc : 0, Total : 400636643
442563825500: system.cpu: -------------------------------------------------- 
<bad format>442563825500: system.cpu: Total Cycles :: 885100000 
442563825500: system.cpu: Tread 0 :: Base : 44155560, L1miss : 266502119, Branch : 36071831, D1miss : 52377733, Wait : 2168251, Misc : 0, Total : 401275494
442563825500: system.cpu: Tread 1 :: Base : 44247128, L1miss : 266829477, Branch : 35836961, D1miss : 51534309, Wait : 2272736, Misc : 0, Total : 400720611
442613825500: system.cpu: -------------------------------------------------- 
<bad format>442613825500: system.cpu: Total Cycles :: 885200000 
442613825500: system.cpu: Tread 0 :: Base : 44165714, L1miss : 266560708, Branch : 36078496, D1miss : 52388279, Wait : 2169256, Misc : 0, Total : 401362453
442613825500: system.cpu: Tread 1 :: Base : 44258023, L1miss : 266883998, Branch : 35842458, D1miss : 51548641, Wait : 2273709, Misc : 0, Total : 400806829
442663825500: system.cpu: -------------------------------------------------- 
<bad format>442663825500: system.cpu: Total Cycles :: 885300000 
442663825500: system.cpu: Tread 0 :: Base : 44176734, L1miss : 266616246, Branch : 36084524, D1miss : 52397925, Wait : 2170384, Misc : 0, Total : 401445813
442663825500: system.cpu: Tread 1 :: Base : 44268244, L1miss : 266938058, Branch : 35850101, D1miss : 51558132, Wait : 2274780, Misc : 0, Total : 400889315
442713825500: system.cpu: -------------------------------------------------- 
<bad format>442713825500: system.cpu: Total Cycles :: 885400000 
442713825500: system.cpu: Tread 0 :: Base : 44186046, L1miss : 266670465, Branch : 36091428, D1miss : 52405279, Wait : 2171407, Misc : 0, Total : 401524625
442713825500: system.cpu: Tread 1 :: Base : 44280393, L1miss : 266992547, Branch : 35854795, D1miss : 51572230, Wait : 2276116, Misc : 0, Total : 400976081
442763825500: system.cpu: -------------------------------------------------- 
<bad format>442763825500: system.cpu: Total Cycles :: 885500000 
442763825500: system.cpu: Tread 0 :: Base : 44195458, L1miss : 266723162, Branch : 36098364, D1miss : 52415575, Wait : 2172285, Misc : 0, Total : 401604844
442763825500: system.cpu: Tread 1 :: Base : 44291257, L1miss : 267049189, Branch : 35861610, D1miss : 51583822, Wait : 2277281, Misc : 0, Total : 401063159
442813825500: system.cpu: -------------------------------------------------- 
<bad format>442813825500: system.cpu: Total Cycles :: 885600000 
442813825500: system.cpu: Tread 0 :: Base : 44205508, L1miss : 266778146, Branch : 36104398, D1miss : 52426087, Wait : 2173295, Misc : 0, Total : 401687434
442813825500: system.cpu: Tread 1 :: Base : 44302061, L1miss : 267107493, Branch : 35867978, D1miss : 51593571, Wait : 2278555, Misc : 0, Total : 401149658
442863825500: system.cpu: -------------------------------------------------- 
<bad format>442863825500: system.cpu: Total Cycles :: 885700000 
442863825500: system.cpu: Tread 0 :: Base : 44217323, L1miss : 266836024, Branch : 36110026, D1miss : 52436626, Wait : 2174483, Misc : 0, Total : 401774482
442863825500: system.cpu: Tread 1 :: Base : 44312933, L1miss : 267162004, Branch : 35874389, D1miss : 51604396, Wait : 2279679, Misc : 0, Total : 401233401
442913825500: system.cpu: -------------------------------------------------- 
<bad format>442913825500: system.cpu: Total Cycles :: 885800000 
442913825500: system.cpu: Tread 0 :: Base : 44228196, L1miss : 266891452, Branch : 36116142, D1miss : 52448720, Wait : 2175597, Misc : 0, Total : 401860107
442913825500: system.cpu: Tread 1 :: Base : 44322129, L1miss : 267215229, Branch : 35880280, D1miss : 51613623, Wait : 2280646, Misc : 0, Total : 401311907
442963825500: system.cpu: -------------------------------------------------- 
<bad format>442963825500: system.cpu: Total Cycles :: 885900000 
442963825500: system.cpu: Tread 0 :: Base : 44238879, L1miss : 266946185, Branch : 36122011, D1miss : 52463883, Wait : 2176535, Misc : 0, Total : 401947493
442963825500: system.cpu: Tread 1 :: Base : 44331574, L1miss : 267272381, Branch : 35887759, D1miss : 51624513, Wait : 2281536, Misc : 0, Total : 401397763
443013825500: system.cpu: RESET 0 0 0
443013825500: system.cpu: RESET 0 0 0
443013825500: system.cpu: -------------------------------------------------- 
<bad format>443013825500: system.cpu: Total Cycles :: 886000000 
443013825500: system.cpu: Tread 0 :: Base : 44250630, L1miss : 267004597, Branch : 36126977, D1miss : 52474666, Wait : 2177841, Misc : 0, Total : 402034711
443013825500: system.cpu: Tread 1 :: Base : 44342546, L1miss : 267329181, Branch : 35893528, D1miss : 51635994, Wait : 2282740, Misc : 0, Total : 401483989
443063825500: system.cpu: -------------------------------------------------- 
<bad format>443063825500: system.cpu: Total Cycles :: 886100000 
443063825500: system.cpu: Tread 0 :: Base : 44261363, L1miss : 267062221, Branch : 36134142, D1miss : 52484283, Wait : 2178909, Misc : 0, Total : 402120918
443063825500: system.cpu: Tread 1 :: Base : 44353930, L1miss : 267387163, Branch : 35899467, D1miss : 51646239, Wait : 2284054, Misc : 0, Total : 401570853
443113825500: system.cpu: -------------------------------------------------- 
<bad format>443113825500: system.cpu: Total Cycles :: 886200000 
443113825500: system.cpu: Tread 0 :: Base : 44271608, L1miss : 267113791, Branch : 36140524, D1miss : 52494853, Wait : 2179760, Misc : 0, Total : 402200536
443113825500: system.cpu: Tread 1 :: Base : 44364808, L1miss : 267445743, Branch : 35906345, D1miss : 51654776, Wait : 2285227, Misc : 0, Total : 401656899
443163825500: system.cpu: -------------------------------------------------- 
<bad format>443163825500: system.cpu: Total Cycles :: 886300000 
443163825500: system.cpu: Tread 0 :: Base : 44281861, L1miss : 267167960, Branch : 36145657, D1miss : 52507359, Wait : 2180678, Misc : 0, Total : 402283515
443163825500: system.cpu: Tread 1 :: Base : 44374896, L1miss : 267500692, Branch : 35912886, D1miss : 51665266, Wait : 2286265, Misc : 0, Total : 401740005
443213825500: system.cpu: -------------------------------------------------- 
<bad format>443213825500: system.cpu: Total Cycles :: 886400000 
443213825500: system.cpu: Tread 0 :: Base : 44291692, L1miss : 267226495, Branch : 36152092, D1miss : 52515014, Wait : 2181678, Misc : 0, Total : 402366971
443213825500: system.cpu: Tread 1 :: Base : 44387065, L1miss : 267554274, Branch : 35917593, D1miss : 51678618, Wait : 2287492, Misc : 0, Total : 401825042
443263825500: system.cpu: -------------------------------------------------- 
<bad format>443263825500: system.cpu: Total Cycles :: 886500000 
443263825500: system.cpu: Tread 0 :: Base : 44302668, L1miss : 267285689, Branch : 36158366, D1miss : 52524541, Wait : 2182811, Misc : 0, Total : 402454075
443263825500: system.cpu: Tread 1 :: Base : 44397623, L1miss : 267608441, Branch : 35923593, D1miss : 51691231, Wait : 2288413, Misc : 0, Total : 401909301
443313825500: system.cpu: -------------------------------------------------- 
<bad format>443313825500: system.cpu: Total Cycles :: 886600000 
443313825500: system.cpu: Tread 0 :: Base : 44312758, L1miss : 267340847, Branch : 36163413, D1miss : 52538107, Wait : 2183611, Misc : 0, Total : 402538736
443313825500: system.cpu: Tread 1 :: Base : 44407240, L1miss : 267664665, Branch : 35929080, D1miss : 51701899, Wait : 2289292, Misc : 0, Total : 401992176
443363825500: system.cpu: -------------------------------------------------- 
<bad format>443363825500: system.cpu: Total Cycles :: 886700000 
443363825500: system.cpu: Tread 0 :: Base : 44323045, L1miss : 267397216, Branch : 36167706, D1miss : 52549821, Wait : 2184623, Misc : 0, Total : 402622411
443363825500: system.cpu: Tread 1 :: Base : 44417045, L1miss : 267720579, Branch : 35934813, D1miss : 51712568, Wait : 2290225, Misc : 0, Total : 402075230
443413825500: system.cpu: -------------------------------------------------- 
<bad format>443413825500: system.cpu: Total Cycles :: 886800000 
443413825500: system.cpu: Tread 0 :: Base : 44332765, L1miss : 267448622, Branch : 36172601, D1miss : 52562406, Wait : 2185475, Misc : 0, Total : 402701869
443413825500: system.cpu: Tread 1 :: Base : 44427198, L1miss : 267780290, Branch : 35940948, D1miss : 51724080, Wait : 2291210, Misc : 0, Total : 402163726
443463825500: system.cpu: -------------------------------------------------- 
<bad format>443463825500: system.cpu: Total Cycles :: 886900000 
443463825500: system.cpu: Tread 0 :: Base : 44343870, L1miss : 267503166, Branch : 36177398, D1miss : 52573929, Wait : 2186543, Misc : 0, Total : 402784906
443463825500: system.cpu: Tread 1 :: Base : 44438023, L1miss : 267838353, Branch : 35947701, D1miss : 51733883, Wait : 2292506, Misc : 0, Total : 402250466
