gem5 Simulator System.  http://gem5.org
gem5 is copyrighted software; use the --copyright option for details.

gem5 compiled Dec 21 2017 13:35:48
gem5 started Dec 21 2017 17:37:18
gem5 executing on worker05, pid 230828
command line: ./build/ALPHA/gem5.debug --debug-flag=Progress configs/example/se.py -n 1 --smt --cpu-type=DerivO3CPU -c ../../spec_alpha/gcc/gcc.alpha '--options=../../spec_alpha/gcc/gcc_input/s04.i -o ../../spec_alpha/gcc/gcc_input/s04.s' --caches --l1d_size=32kB --l1i_size=32kB --l2_size=256kB --l3_size=8MB --mem-size=8GB

Global frequency set at 1000000000000 ticks per second
**** REAL SIMULATION ****
83580500: system.cpu: -------------------------------------------------- 
<bad format>83580500: system.cpu: Total Cycles :: 100000 
83580500: system.cpu: Tread 0 :: Base : 12605, L1miss : 63047, Branch : 15518, D1miss : 1106, Wait : 0, Misc : 0, Total : 92276
139072000: system.cpu: -------------------------------------------------- 
<bad format>139072000: system.cpu: Total Cycles :: 200000 
139072000: system.cpu: Tread 0 :: Base : 41935, L1miss : 108606, Branch : 56276, D1miss : 3198, Wait : 0, Misc : 0, Total : 210015
190726000: system.cpu: -------------------------------------------------- 
<bad format>190726000: system.cpu: Total Cycles :: 300000 
190726000: system.cpu: Tread 0 :: Base : 74730, L1miss : 160104, Branch : 81764, D1miss : 3317, Wait : 0, Misc : 0, Total : 319915
240726000: system.cpu: -------------------------------------------------- 
<bad format>240726000: system.cpu: Total Cycles :: 400000 
240726000: system.cpu: Tread 0 :: Base : 105686, L1miss : 221567, Branch : 92574, D1miss : 3317, Wait : 0, Misc : 0, Total : 423144
290726000: system.cpu: -------------------------------------------------- 
<bad format>290726000: system.cpu: Total Cycles :: 500000 
290726000: system.cpu: Tread 0 :: Base : 136038, L1miss : 282741, Branch : 104949, D1miss : 4452, Wait : 0, Misc : 0, Total : 528180
340726000: system.cpu: -------------------------------------------------- 
<bad format>340726000: system.cpu: Total Cycles :: 600000 
340726000: system.cpu: Tread 0 :: Base : 168781, L1miss : 343046, Branch : 115075, D1miss : 4452, Wait : 0, Misc : 0, Total : 631354
390726000: system.cpu: -------------------------------------------------- 
<bad format>390726000: system.cpu: Total Cycles :: 700000 
390726000: system.cpu: Tread 0 :: Base : 202220, L1miss : 402982, Branch : 124676, D1miss : 4452, Wait : 0, Misc : 0, Total : 734330
440726000: system.cpu: -------------------------------------------------- 
<bad format>440726000: system.cpu: Total Cycles :: 800000 
440726000: system.cpu: Tread 0 :: Base : 233846, L1miss : 464463, Branch : 134533, D1miss : 4452, Wait : 0, Misc : 0, Total : 837294
493331000: system.cpu: -------------------------------------------------- 
<bad format>493331000: system.cpu: Total Cycles :: 900000 
493331000: system.cpu: Tread 0 :: Base : 262299, L1miss : 528282, Branch : 146085, D1miss : 4452, Wait : 0, Misc : 0, Total : 941118
543355500: system.cpu: RESET 0 0 0
543355500: system.cpu: -------------------------------------------------- 
<bad format>543355500: system.cpu: Total Cycles :: 1000000 
543355500: system.cpu: Tread 0 :: Base : 293132, L1miss : 590811, Branch : 158263, D1miss : 4452, Wait : 0, Misc : 0, Total : 1046658
593355500: system.cpu: -------------------------------------------------- 
<bad format>593355500: system.cpu: Total Cycles :: 1100000 
593355500: system.cpu: Tread 0 :: Base : 324160, L1miss : 653618, Branch : 169734, D1miss : 4698, Wait : 0, Misc : 0, Total : 1152210
643355500: system.cpu: -------------------------------------------------- 
<bad format>643355500: system.cpu: Total Cycles :: 1200000 
643355500: system.cpu: Tread 0 :: Base : 354761, L1miss : 713459, Branch : 183828, D1miss : 6534, Wait : 0, Misc : 0, Total : 1258582
693355500: system.cpu: -------------------------------------------------- 
<bad format>693355500: system.cpu: Total Cycles :: 1300000 
693355500: system.cpu: Tread 0 :: Base : 386087, L1miss : 774330, Branch : 195210, D1miss : 8002, Wait : 0, Misc : 0, Total : 1363629
743355500: system.cpu: -------------------------------------------------- 
<bad format>743355500: system.cpu: Total Cycles :: 1400000 
743355500: system.cpu: Tread 0 :: Base : 415568, L1miss : 836386, Branch : 209080, D1miss : 9117, Wait : 0, Misc : 0, Total : 1470151
793355500: system.cpu: -------------------------------------------------- 
<bad format>793355500: system.cpu: Total Cycles :: 1500000 
793355500: system.cpu: Tread 0 :: Base : 444825, L1miss : 897983, Branch : 224071, D1miss : 9557, Wait : 0, Misc : 0, Total : 1576436
843355500: system.cpu: -------------------------------------------------- 
<bad format>843355500: system.cpu: Total Cycles :: 1600000 
843355500: system.cpu: Tread 0 :: Base : 477297, L1miss : 959773, Branch : 233873, D1miss : 9570, Wait : 0, Misc : 0, Total : 1680513
893355500: system.cpu: -------------------------------------------------- 
<bad format>893355500: system.cpu: Total Cycles :: 1700000 
893355500: system.cpu: Tread 0 :: Base : 509046, L1miss : 1022539, Branch : 244369, D1miss : 9642, Wait : 0, Misc : 0, Total : 1785596
943355500: system.cpu: -------------------------------------------------- 
<bad format>943355500: system.cpu: Total Cycles :: 1800000 
943355500: system.cpu: Tread 0 :: Base : 540924, L1miss : 1084979, Branch : 254293, D1miss : 9940, Wait : 0, Misc : 0, Total : 1890136
993355500: system.cpu: -------------------------------------------------- 
<bad format>993355500: system.cpu: Total Cycles :: 1900000 
993355500: system.cpu: Tread 0 :: Base : 571035, L1miss : 1146548, Branch : 269314, D1miss : 10191, Wait : 0, Misc : 0, Total : 1997088
1043355500: system.cpu: RESET 0 0 0
1043355500: system.cpu: -------------------------------------------------- 
<bad format>1043355500: system.cpu: Total Cycles :: 2000000 
1043355500: system.cpu: Tread 0 :: Base : 600163, L1miss : 1208443, Branch : 284485, D1miss : 10280, Wait : 0, Misc : 0, Total : 2103371
1093355500: system.cpu: -------------------------------------------------- 
<bad format>1093355500: system.cpu: Total Cycles :: 2100000 
1093355500: system.cpu: Tread 0 :: Base : 630758, L1miss : 1270263, Branch : 298359, D1miss : 10395, Wait : 0, Misc : 0, Total : 2209775
1143355500: system.cpu: -------------------------------------------------- 
<bad format>1143355500: system.cpu: Total Cycles :: 2200000 
1143355500: system.cpu: Tread 0 :: Base : 659872, L1miss : 1332552, Branch : 313022, D1miss : 10696, Wait : 0, Misc : 0, Total : 2316142
1193355500: system.cpu: -------------------------------------------------- 
<bad format>1193355500: system.cpu: Total Cycles :: 2300000 
1193355500: system.cpu: Tread 0 :: Base : 689534, L1miss : 1394099, Branch : 326828, D1miss : 11991, Wait : 0, Misc : 0, Total : 2422452
1243355500: system.cpu: -------------------------------------------------- 
<bad format>1243355500: system.cpu: Total Cycles :: 2400000 
1243355500: system.cpu: Tread 0 :: Base : 719630, L1miss : 1453985, Branch : 340464, D1miss : 16097, Wait : 0, Misc : 0, Total : 2530176
1293355500: system.cpu: -------------------------------------------------- 
<bad format>1293355500: system.cpu: Total Cycles :: 2500000 
1293355500: system.cpu: Tread 0 :: Base : 751298, L1miss : 1516990, Branch : 350809, D1miss : 16307, Wait : 0, Misc : 0, Total : 2635404
1343355500: system.cpu: -------------------------------------------------- 
<bad format>1343355500: system.cpu: Total Cycles :: 2600000 
1343355500: system.cpu: Tread 0 :: Base : 781990, L1miss : 1579813, Branch : 363226, D1miss : 16380, Wait : 0, Misc : 0, Total : 2741409
1393355500: system.cpu: -------------------------------------------------- 
<bad format>1393355500: system.cpu: Total Cycles :: 2700000 
1393355500: system.cpu: Tread 0 :: Base : 808674, L1miss : 1643125, Branch : 381112, D1miss : 17037, Wait : 0, Misc : 0, Total : 2849948
1443355500: system.cpu: -------------------------------------------------- 
<bad format>1443355500: system.cpu: Total Cycles :: 2800000 
1443355500: system.cpu: Tread 0 :: Base : 834523, L1miss : 1708877, Branch : 397814, D1miss : 18410, Wait : 0, Misc : 0, Total : 2959624
1509911500: system.cpu: -------------------------------------------------- 
<bad format>1509911500: system.cpu: Total Cycles :: 2900000 
1509911500: system.cpu: Tread 0 :: Base : 852839, L1miss : 1778298, Branch : 412176, D1miss : 18944, Wait : 0, Misc : 0, Total : 3062257
1574147500: system.cpu: RESET 0 0 0
1574147500: system.cpu: -------------------------------------------------- 
<bad format>1574147500: system.cpu: Total Cycles :: 3000000 
1574147500: system.cpu: Tread 0 :: Base : 873723, L1miss : 1844674, Branch : 421006, D1miss : 20348, Wait : 0, Misc : 0, Total : 3159751
1633610500: system.cpu: -------------------------------------------------- 
<bad format>1633610500: system.cpu: Total Cycles :: 3100000 
1633610500: system.cpu: Tread 0 :: Base : 895947, L1miss : 1911721, Branch : 428265, D1miss : 22227, Wait : 0, Misc : 0, Total : 3258160
1697370500: system.cpu: -------------------------------------------------- 
<bad format>1697370500: system.cpu: Total Cycles :: 3200000 
1697370500: system.cpu: Tread 0 :: Base : 924459, L1miss : 1978530, Branch : 435685, D1miss : 23114, Wait : 0, Misc : 0, Total : 3361788
1766591000: system.cpu: -------------------------------------------------- 
<bad format>1766591000: system.cpu: Total Cycles :: 3300000 
1766591000: system.cpu: Tread 0 :: Base : 950517, L1miss : 2039718, Branch : 451879, D1miss : 24610, Wait : 0, Misc : 0, Total : 3466724
1835217000: system.cpu: -------------------------------------------------- 
<bad format>1835217000: system.cpu: Total Cycles :: 3400000 
1835217000: system.cpu: Tread 0 :: Base : 971686, L1miss : 2107860, Branch : 469351, D1miss : 26201, Wait : 0, Misc : 0, Total : 3575098
1908546500: system.cpu: -------------------------------------------------- 
<bad format>1908546500: system.cpu: Total Cycles :: 3500000 
1908546500: system.cpu: Tread 0 :: Base : 992976, L1miss : 2178003, Branch : 483128, D1miss : 27557, Wait : 0, Misc : 0, Total : 3681664
1980184500: system.cpu: -------------------------------------------------- 
<bad format>1980184500: system.cpu: Total Cycles :: 3600000 
1980184500: system.cpu: Tread 0 :: Base : 1013613, L1miss : 2245728, Branch : 497601, D1miss : 30018, Wait : 0, Misc : 0, Total : 3786960
2041461500: system.cpu: -------------------------------------------------- 
<bad format>2041461500: system.cpu: Total Cycles :: 3700000 
2041461500: system.cpu: Tread 0 :: Base : 1038787, L1miss : 2313665, Branch : 509650, D1miss : 31038, Wait : 0, Misc : 0, Total : 3893140
2113316500: system.cpu: -------------------------------------------------- 
<bad format>2113316500: system.cpu: Total Cycles :: 3800000 
2113316500: system.cpu: Tread 0 :: Base : 1060037, L1miss : 2384113, Branch : 523592, D1miss : 32198, Wait : 0, Misc : 0, Total : 3999940
2182497000: system.cpu: -------------------------------------------------- 
<bad format>2182497000: system.cpu: Total Cycles :: 3900000 
2182497000: system.cpu: Tread 0 :: Base : 1080261, L1miss : 2449075, Branch : 544932, D1miss : 33416, Wait : 0, Misc : 0, Total : 4107684
2245180000: system.cpu: RESET 0 0 0
2245180000: system.cpu: -------------------------------------------------- 
<bad format>2245180000: system.cpu: Total Cycles :: 4000000 
2245180000: system.cpu: Tread 0 :: Base : 1102892, L1miss : 2514070, Branch : 563812, D1miss : 34744, Wait : 0, Misc : 0, Total : 4215518
2307408500: system.cpu: -------------------------------------------------- 
<bad format>2307408500: system.cpu: Total Cycles :: 4100000 
2307408500: system.cpu: Tread 0 :: Base : 1126163, L1miss : 2579752, Branch : 581253, D1miss : 35493, Wait : 0, Misc : 0, Total : 4322661
2372402000: system.cpu: -------------------------------------------------- 
<bad format>2372402000: system.cpu: Total Cycles :: 4200000 
2372402000: system.cpu: Tread 0 :: Base : 1150075, L1miss : 2643930, Branch : 598430, D1miss : 35931, Wait : 0, Misc : 0, Total : 4428366
2436639000: system.cpu: -------------------------------------------------- 
<bad format>2436639000: system.cpu: Total Cycles :: 4300000 
2436639000: system.cpu: Tread 0 :: Base : 1175276, L1miss : 2709065, Branch : 613167, D1miss : 37228, Wait : 0, Misc : 0, Total : 4534736
2502754500: system.cpu: -------------------------------------------------- 
<bad format>2502754500: system.cpu: Total Cycles :: 4400000 
2502754500: system.cpu: Tread 0 :: Base : 1198388, L1miss : 2774422, Branch : 629228, D1miss : 38998, Wait : 0, Misc : 0, Total : 4641036
2570465500: system.cpu: -------------------------------------------------- 
<bad format>2570465500: system.cpu: Total Cycles :: 4500000 
2570465500: system.cpu: Tread 0 :: Base : 1219773, L1miss : 2844634, Branch : 642425, D1miss : 40332, Wait : 0, Misc : 0, Total : 4747164
2642636000: system.cpu: -------------------------------------------------- 
<bad format>2642636000: system.cpu: Total Cycles :: 4600000 
2642636000: system.cpu: Tread 0 :: Base : 1241108, L1miss : 2915507, Branch : 654700, D1miss : 41047, Wait : 0, Misc : 0, Total : 4852362
2709986500: system.cpu: -------------------------------------------------- 
<bad format>2709986500: system.cpu: Total Cycles :: 4700000 
2709986500: system.cpu: Tread 0 :: Base : 1262853, L1miss : 2985550, Branch : 667775, D1miss : 42288, Wait : 0, Misc : 0, Total : 4958466
2776395000: system.cpu: -------------------------------------------------- 
<bad format>2776395000: system.cpu: Total Cycles :: 4800000 
2776395000: system.cpu: Tread 0 :: Base : 1285686, L1miss : 3050716, Branch : 685664, D1miss : 43131, Wait : 0, Misc : 0, Total : 5065197
2839149500: system.cpu: -------------------------------------------------- 
<bad format>2839149500: system.cpu: Total Cycles :: 4900000 
2839149500: system.cpu: Tread 0 :: Base : 1309769, L1miss : 3116743, Branch : 701641, D1miss : 44147, Wait : 0, Misc : 0, Total : 5172300
2903097000: system.cpu: RESET 0 0 0
2903097000: system.cpu: -------------------------------------------------- 
<bad format>2903097000: system.cpu: Total Cycles :: 5000000 
2903097000: system.cpu: Tread 0 :: Base : 1333654, L1miss : 3181825, Branch : 718412, D1miss : 45148, Wait : 0, Misc : 0, Total : 5279039
2967188500: system.cpu: -------------------------------------------------- 
<bad format>2967188500: system.cpu: Total Cycles :: 5100000 
2967188500: system.cpu: Tread 0 :: Base : 1350098, L1miss : 3242959, Branch : 740210, D1miss : 50806, Wait : 0, Misc : 0, Total : 5384073
3037324000: system.cpu: -------------------------------------------------- 
<bad format>3037324000: system.cpu: Total Cycles :: 5200000 
3037324000: system.cpu: Tread 0 :: Base : 1368473, L1miss : 3309202, Branch : 754665, D1miss : 53814, Wait : 0, Misc : 0, Total : 5486154
3136204000: system.cpu: -------------------------------------------------- 
<bad format>3136204000: system.cpu: Total Cycles :: 5300000 
3136204000: system.cpu: Tread 0 :: Base : 1384563, L1miss : 3379313, Branch : 770806, D1miss : 56402, Wait : 0, Misc : 0, Total : 5591084
3225483500: system.cpu: -------------------------------------------------- 
<bad format>3225483500: system.cpu: Total Cycles :: 5400000 
3225483500: system.cpu: Tread 0 :: Base : 1401743, L1miss : 3451842, Branch : 779977, D1miss : 58581, Wait : 0, Misc : 0, Total : 5692143
3311326500: system.cpu: -------------------------------------------------- 
<bad format>3311326500: system.cpu: Total Cycles :: 5500000 
3311326500: system.cpu: Tread 0 :: Base : 1417738, L1miss : 3522922, Branch : 786864, D1miss : 60586, Wait : 0, Misc : 0, Total : 5788110
3394581000: system.cpu: -------------------------------------------------- 
<bad format>3394581000: system.cpu: Total Cycles :: 5600000 
3394581000: system.cpu: Tread 0 :: Base : 1433275, L1miss : 3589871, Branch : 799687, D1miss : 63137, Wait : 0, Misc : 0, Total : 5885970
3460734500: system.cpu: -------------------------------------------------- 
<bad format>3460734500: system.cpu: Total Cycles :: 5700000 
3460734500: system.cpu: Tread 0 :: Base : 1449804, L1miss : 3650089, Branch : 811957, D1miss : 65861, Wait : 0, Misc : 0, Total : 5977711
3517818000: system.cpu: -------------------------------------------------- 
<bad format>3517818000: system.cpu: Total Cycles :: 5800000 
3517818000: system.cpu: Tread 0 :: Base : 1468220, L1miss : 3719104, Branch : 825325, D1miss : 71823, Wait : 0, Misc : 0, Total : 6084472
3578377000: system.cpu: -------------------------------------------------- 
<bad format>3578377000: system.cpu: Total Cycles :: 5900000 
3578377000: system.cpu: Tread 0 :: Base : 1488157, L1miss : 3790675, Branch : 837298, D1miss : 75954, Wait : 0, Misc : 0, Total : 6192084
3652671500: system.cpu: RESET 0 0 0
3652671500: system.cpu: -------------------------------------------------- 
<bad format>3652671500: system.cpu: Total Cycles :: 6000000 
3652671500: system.cpu: Tread 0 :: Base : 1505783, L1miss : 3863218, Branch : 849520, D1miss : 78392, Wait : 0, Misc : 0, Total : 6296913
3714057500: system.cpu: -------------------------------------------------- 
<bad format>3714057500: system.cpu: Total Cycles :: 6100000 
3714057500: system.cpu: Tread 0 :: Base : 1522860, L1miss : 3928243, Branch : 860759, D1miss : 80123, Wait : 0, Misc : 0, Total : 6391985
3780396500: system.cpu: -------------------------------------------------- 
<bad format>3780396500: system.cpu: Total Cycles :: 6200000 
3780396500: system.cpu: Tread 0 :: Base : 1541273, L1miss : 3998934, Branch : 871355, D1miss : 86135, Wait : 0, Misc : 0, Total : 6497697
3838654000: system.cpu: -------------------------------------------------- 
<bad format>3838654000: system.cpu: Total Cycles :: 6300000 
3838654000: system.cpu: Tread 0 :: Base : 1561137, L1miss : 4069810, Branch : 881447, D1miss : 91617, Wait : 0, Misc : 0, Total : 6604011
3907235500: system.cpu: -------------------------------------------------- 
<bad format>3907235500: system.cpu: Total Cycles :: 6400000 
3907235500: system.cpu: Tread 0 :: Base : 1577959, L1miss : 4134198, Branch : 902466, D1miss : 98068, Wait : 0, Misc : 0, Total : 6712691
3985810000: system.cpu: -------------------------------------------------- 
<bad format>3985810000: system.cpu: Total Cycles :: 6500000 
3985810000: system.cpu: Tread 0 :: Base : 1592694, L1miss : 4203596, Branch : 917429, D1miss : 101253, Wait : 0, Misc : 0, Total : 6814972
4036424500: system.cpu: -------------------------------------------------- 
<bad format>4036424500: system.cpu: Total Cycles :: 6600000 
4036424500: system.cpu: Tread 0 :: Base : 1612342, L1miss : 4290308, Branch : 920210, D1miss : 101286, Wait : 0, Misc : 0, Total : 6924146
4104894000: system.cpu: -------------------------------------------------- 
<bad format>4104894000: system.cpu: Total Cycles :: 6700000 
4104894000: system.cpu: Tread 0 :: Base : 1628831, L1miss : 4365106, Branch : 931474, D1miss : 101821, Wait : 0, Misc : 0, Total : 7027232
4186255000: system.cpu: -------------------------------------------------- 
<bad format>4186255000: system.cpu: Total Cycles :: 6800000 
4186255000: system.cpu: Tread 0 :: Base : 1643391, L1miss : 4436005, Branch : 938665, D1miss : 102965, Wait : 0, Misc : 0, Total : 7121026
4270361000: system.cpu: -------------------------------------------------- 
<bad format>4270361000: system.cpu: Total Cycles :: 6900000 
4270361000: system.cpu: Tread 0 :: Base : 1657887, L1miss : 4507581, Branch : 942325, D1miss : 103619, Wait : 0, Misc : 0, Total : 7211412
4351981500: system.cpu: RESET 0 0 0
4351981500: system.cpu: -------------------------------------------------- 
<bad format>4351981500: system.cpu: Total Cycles :: 7000000 
4351981500: system.cpu: Tread 0 :: Base : 1672378, L1miss : 4578661, Branch : 948363, D1miss : 105144, Wait : 0, Misc : 0, Total : 7304546
4451964000: system.cpu: -------------------------------------------------- 
<bad format>4451964000: system.cpu: Total Cycles :: 7100000 
4451964000: system.cpu: Tread 0 :: Base : 1685975, L1miss : 4647209, Branch : 966637, D1miss : 107655, Wait : 0, Misc : 0, Total : 7407476
4563613000: system.cpu: -------------------------------------------------- 
<bad format>4563613000: system.cpu: Total Cycles :: 7200000 
4563613000: system.cpu: Tread 0 :: Base : 1697970, L1miss : 4704128, Branch : 1003035, D1miss : 115101, Wait : 0, Misc : 0, Total : 7520234
4664393500: system.cpu: -------------------------------------------------- 
<bad format>4664393500: system.cpu: Total Cycles :: 7300000 
4664393500: system.cpu: Tread 0 :: Base : 1713090, L1miss : 4767662, Branch : 1026318, D1miss : 117891, Wait : 0, Misc : 0, Total : 7624961
4785984000: system.cpu: -------------------------------------------------- 
<bad format>4785984000: system.cpu: Total Cycles :: 7400000 
4785984000: system.cpu: Tread 0 :: Base : 1727216, L1miss : 4836973, Branch : 1042315, D1miss : 119215, Wait : 0, Misc : 0, Total : 7725719
4911630500: system.cpu: -------------------------------------------------- 
<bad format>4911630500: system.cpu: Total Cycles :: 7500000 
4911630500: system.cpu: Tread 0 :: Base : 1740949, L1miss : 4909869, Branch : 1052406, D1miss : 120991, Wait : 0, Misc : 0, Total : 7824215
5003194500: system.cpu: -------------------------------------------------- 
<bad format>5003194500: system.cpu: Total Cycles :: 7600000 
5003194500: system.cpu: Tread 0 :: Base : 1758356, L1miss : 4977728, Branch : 1067392, D1miss : 121817, Wait : 0, Misc : 0, Total : 7925293
5113585500: system.cpu: -------------------------------------------------- 
<bad format>5113585500: system.cpu: Total Cycles :: 7700000 
5113585500: system.cpu: Tread 0 :: Base : 1771605, L1miss : 5038361, Branch : 1097619, D1miss : 126455, Wait : 0, Misc : 0, Total : 8034040
5213120500: system.cpu: -------------------------------------------------- 
<bad format>5213120500: system.cpu: Total Cycles :: 7800000 
5213120500: system.cpu: Tread 0 :: Base : 1786791, L1miss : 5110574, Branch : 1111201, D1miss : 129272, Wait : 0, Misc : 0, Total : 8137838
5316874500: system.cpu: -------------------------------------------------- 
<bad format>5316874500: system.cpu: Total Cycles :: 7900000 
5316874500: system.cpu: Tread 0 :: Base : 1801390, L1miss : 5179809, Branch : 1128936, D1miss : 132698, Wait : 0, Misc : 0, Total : 8242833
5430621000: system.cpu: RESET 0 0 0
5430621000: system.cpu: -------------------------------------------------- 
<bad format>5430621000: system.cpu: Total Cycles :: 8000000 
5430621000: system.cpu: Tread 0 :: Base : 1813482, L1miss : 5240601, Branch : 1160142, D1miss : 137340, Wait : 0, Misc : 0, Total : 8351565
5533429000: system.cpu: -------------------------------------------------- 
<bad format>5533429000: system.cpu: Total Cycles :: 8100000 
5533429000: system.cpu: Tread 0 :: Base : 1828054, L1miss : 5306371, Branch : 1178641, D1miss : 139602, Wait : 0, Misc : 0, Total : 8452668
5637374500: system.cpu: -------------------------------------------------- 
<bad format>5637374500: system.cpu: Total Cycles :: 8200000 
5637374500: system.cpu: Tread 0 :: Base : 1843645, L1miss : 5374680, Branch : 1194764, D1miss : 141745, Wait : 0, Misc : 0, Total : 8554834
5737111500: system.cpu: -------------------------------------------------- 
<bad format>5737111500: system.cpu: Total Cycles :: 8300000 
5737111500: system.cpu: Tread 0 :: Base : 1860154, L1miss : 5445321, Branch : 1202611, D1miss : 142530, Wait : 0, Misc : 0, Total : 8650616
5843321000: system.cpu: -------------------------------------------------- 
<bad format>5843321000: system.cpu: Total Cycles :: 8400000 
5843321000: system.cpu: Tread 0 :: Base : 1876586, L1miss : 5513463, Branch : 1212623, D1miss : 143338, Wait : 0, Misc : 0, Total : 8746010
5947655500: system.cpu: -------------------------------------------------- 
<bad format>5947655500: system.cpu: Total Cycles :: 8500000 
5947655500: system.cpu: Tread 0 :: Base : 1892421, L1miss : 5578353, Branch : 1223865, D1miss : 144745, Wait : 0, Misc : 0, Total : 8839384
6052321000: system.cpu: -------------------------------------------------- 
<bad format>6052321000: system.cpu: Total Cycles :: 8600000 
6052321000: system.cpu: Tread 0 :: Base : 1909087, L1miss : 5647795, Branch : 1232289, D1miss : 145679, Wait : 0, Misc : 0, Total : 8934850
6159470500: system.cpu: -------------------------------------------------- 
<bad format>6159470500: system.cpu: Total Cycles :: 8700000 
6159470500: system.cpu: Tread 0 :: Base : 1925384, L1miss : 5716075, Branch : 1241782, D1miss : 146723, Wait : 0, Misc : 0, Total : 9029964
6254576500: system.cpu: -------------------------------------------------- 
<bad format>6254576500: system.cpu: Total Cycles :: 8800000 
6254576500: system.cpu: Tread 0 :: Base : 1938650, L1miss : 5784244, Branch : 1251313, D1miss : 150450, Wait : 0, Misc : 0, Total : 9124657
6337475500: system.cpu: -------------------------------------------------- 
<bad format>6337475500: system.cpu: Total Cycles :: 8900000 
6337475500: system.cpu: Tread 0 :: Base : 1948096, L1miss : 5861737, Branch : 1267167, D1miss : 151545, Wait : 0, Misc : 0, Total : 9228545
6476605500: system.cpu: RESET 0 0 0
6476605500: system.cpu: -------------------------------------------------- 
<bad format>6476605500: system.cpu: Total Cycles :: 9000000 
6476605500: system.cpu: Tread 0 :: Base : 1961068, L1miss : 5930573, Branch : 1284069, D1miss : 153886, Wait : 0, Misc : 0, Total : 9329596
6596708000: system.cpu: -------------------------------------------------- 
<bad format>6596708000: system.cpu: Total Cycles :: 9100000 
6596708000: system.cpu: Tread 0 :: Base : 1972794, L1miss : 5992106, Branch : 1312292, D1miss : 159022, Wait : 0, Misc : 0, Total : 9436214
6711241000: system.cpu: -------------------------------------------------- 
<bad format>6711241000: system.cpu: Total Cycles :: 9200000 
6711241000: system.cpu: Tread 0 :: Base : 1988444, L1miss : 6065524, Branch : 1325314, D1miss : 161405, Wait : 0, Misc : 0, Total : 9540687
6836784000: system.cpu: -------------------------------------------------- 
<bad format>6836784000: system.cpu: Total Cycles :: 9300000 
6836784000: system.cpu: Tread 0 :: Base : 2001641, L1miss : 6131077, Branch : 1348359, D1miss : 164883, Wait : 0, Misc : 0, Total : 9645960
6936488000: system.cpu: -------------------------------------------------- 
<bad format>6936488000: system.cpu: Total Cycles :: 9400000 
6936488000: system.cpu: Tread 0 :: Base : 2015686, L1miss : 6194435, Branch : 1373629, D1miss : 166349, Wait : 0, Misc : 0, Total : 9750099
7059111000: system.cpu: -------------------------------------------------- 
<bad format>7059111000: system.cpu: Total Cycles :: 9500000 
7059111000: system.cpu: Tread 0 :: Base : 2028190, L1miss : 6257428, Branch : 1396734, D1miss : 170992, Wait : 0, Misc : 0, Total : 9853344
7189485000: system.cpu: -------------------------------------------------- 
<bad format>7189485000: system.cpu: Total Cycles :: 9600000 
7189485000: system.cpu: Tread 0 :: Base : 2040522, L1miss : 6325593, Branch : 1414633, D1miss : 175233, Wait : 0, Misc : 0, Total : 9955981
7317375000: system.cpu: -------------------------------------------------- 
<bad format>7317375000: system.cpu: Total Cycles :: 9700000 
7317375000: system.cpu: Tread 0 :: Base : 2052343, L1miss : 6392911, Branch : 1432135, D1miss : 178545, Wait : 0, Misc : 0, Total : 10055934
7441292000: system.cpu: -------------------------------------------------- 
<bad format>7441292000: system.cpu: Total Cycles :: 9800000 
7441292000: system.cpu: Tread 0 :: Base : 2065204, L1miss : 6459351, Branch : 1450810, D1miss : 182306, Wait : 0, Misc : 0, Total : 10157671
7566333500: system.cpu: -------------------------------------------------- 
<bad format>7566333500: system.cpu: Total Cycles :: 9900000 
7566333500: system.cpu: Tread 0 :: Base : 2077188, L1miss : 6527427, Branch : 1468468, D1miss : 185907, Wait : 0, Misc : 0, Total : 10258990
7686518000: system.cpu: RESET 0 0 0
7686518000: system.cpu: -------------------------------------------------- 
<bad format>7686518000: system.cpu: Total Cycles :: 10000000 
7686518000: system.cpu: Tread 0 :: Base : 2089368, L1miss : 6592761, Branch : 1486480, D1miss : 189089, Wait : 0, Misc : 0, Total : 10357698
7805228000: system.cpu: -------------------------------------------------- 
<bad format>7805228000: system.cpu: Total Cycles :: 10100000 
7805228000: system.cpu: Tread 0 :: Base : 2102139, L1miss : 6662063, Branch : 1503421, D1miss : 192948, Wait : 0, Misc : 0, Total : 10460571
7926691500: system.cpu: -------------------------------------------------- 
<bad format>7926691500: system.cpu: Total Cycles :: 10200000 
7926691500: system.cpu: Tread 0 :: Base : 2115012, L1miss : 6728972, Branch : 1522642, D1miss : 197145, Wait : 0, Misc : 0, Total : 10563771
8045966500: system.cpu: -------------------------------------------------- 
<bad format>8045966500: system.cpu: Total Cycles :: 10300000 
8045966500: system.cpu: Tread 0 :: Base : 2128129, L1miss : 6795808, Branch : 1543165, D1miss : 200762, Wait : 0, Misc : 0, Total : 10667864
8157539500: system.cpu: -------------------------------------------------- 
<bad format>8157539500: system.cpu: Total Cycles :: 10400000 
8157539500: system.cpu: Tread 0 :: Base : 2141608, L1miss : 6859568, Branch : 1560449, D1miss : 205158, Wait : 0, Misc : 0, Total : 10766783
8274883500: system.cpu: -------------------------------------------------- 
<bad format>8274883500: system.cpu: Total Cycles :: 10500000 
8274883500: system.cpu: Tread 0 :: Base : 2155110, L1miss : 6925727, Branch : 1578512, D1miss : 208672, Wait : 0, Misc : 0, Total : 10868021
8398314000: system.cpu: -------------------------------------------------- 
<bad format>8398314000: system.cpu: Total Cycles :: 10600000 
8398314000: system.cpu: Tread 0 :: Base : 2167748, L1miss : 6992700, Branch : 1597163, D1miss : 212432, Wait : 0, Misc : 0, Total : 10970043
8519664000: system.cpu: -------------------------------------------------- 
<bad format>8519664000: system.cpu: Total Cycles :: 10700000 
8519664000: system.cpu: Tread 0 :: Base : 2181261, L1miss : 7060156, Branch : 1614691, D1miss : 217240, Wait : 0, Misc : 0, Total : 11073348
8644465500: system.cpu: -------------------------------------------------- 
<bad format>8644465500: system.cpu: Total Cycles :: 10800000 
8644465500: system.cpu: Tread 0 :: Base : 2194180, L1miss : 7127970, Branch : 1629735, D1miss : 221206, Wait : 0, Misc : 0, Total : 11173091
8763776500: system.cpu: -------------------------------------------------- 
<bad format>8763776500: system.cpu: Total Cycles :: 10900000 
8763776500: system.cpu: Tread 0 :: Base : 2207801, L1miss : 7195705, Branch : 1648056, D1miss : 225200, Wait : 0, Misc : 0, Total : 11276762
8883046500: system.cpu: RESET 0 0 0
8883046500: system.cpu: -------------------------------------------------- 
<bad format>8883046500: system.cpu: Total Cycles :: 11000000 
8883046500: system.cpu: Tread 0 :: Base : 2220726, L1miss : 7261642, Branch : 1665390, D1miss : 230778, Wait : 0, Misc : 0, Total : 11378536
9002615500: system.cpu: -------------------------------------------------- 
<bad format>9002615500: system.cpu: Total Cycles :: 11100000 
9002615500: system.cpu: Tread 0 :: Base : 2234027, L1miss : 7328081, Branch : 1683554, D1miss : 235242, Wait : 0, Misc : 0, Total : 11480904
9113891500: system.cpu: -------------------------------------------------- 
<bad format>9113891500: system.cpu: Total Cycles :: 11200000 
9113891500: system.cpu: Tread 0 :: Base : 2247341, L1miss : 7394582, Branch : 1700788, D1miss : 238930, Wait : 0, Misc : 0, Total : 11581641
9233709500: system.cpu: -------------------------------------------------- 
<bad format>9233709500: system.cpu: Total Cycles :: 11300000 
9233709500: system.cpu: Tread 0 :: Base : 2260854, L1miss : 7461220, Branch : 1717933, D1miss : 243560, Wait : 0, Misc : 0, Total : 11683567
9356361500: system.cpu: -------------------------------------------------- 
<bad format>9356361500: system.cpu: Total Cycles :: 11400000 
9356361500: system.cpu: Tread 0 :: Base : 2274264, L1miss : 7529459, Branch : 1735962, D1miss : 247054, Wait : 0, Misc : 0, Total : 11786739
9474918500: system.cpu: -------------------------------------------------- 
<bad format>9474918500: system.cpu: Total Cycles :: 11500000 
9474918500: system.cpu: Tread 0 :: Base : 2287572, L1miss : 7596700, Branch : 1753298, D1miss : 252013, Wait : 0, Misc : 0, Total : 11889583
9595467500: system.cpu: -------------------------------------------------- 
<bad format>9595467500: system.cpu: Total Cycles :: 11600000 
9595467500: system.cpu: Tread 0 :: Base : 2300271, L1miss : 7661580, Branch : 1770881, D1miss : 256327, Wait : 0, Misc : 0, Total : 11989059
9709474000: system.cpu: -------------------------------------------------- 
<bad format>9709474000: system.cpu: Total Cycles :: 11700000 
9709474000: system.cpu: Tread 0 :: Base : 2313415, L1miss : 7727649, Branch : 1789853, D1miss : 261119, Wait : 0, Misc : 0, Total : 12092036
9829761000: system.cpu: -------------------------------------------------- 
<bad format>9829761000: system.cpu: Total Cycles :: 11800000 
9829761000: system.cpu: Tread 0 :: Base : 2325734, L1miss : 7797608, Branch : 1806752, D1miss : 264547, Wait : 0, Misc : 0, Total : 12194641
9950706000: system.cpu: -------------------------------------------------- 
<bad format>9950706000: system.cpu: Total Cycles :: 11900000 
9950706000: system.cpu: Tread 0 :: Base : 2338719, L1miss : 7865860, Branch : 1824967, D1miss : 269045, Wait : 0, Misc : 0, Total : 12298591
10074612000: system.cpu: RESET 0 0 0
10074612000: system.cpu: -------------------------------------------------- 
<bad format>10074612000: system.cpu: Total Cycles :: 12000000 
10074612000: system.cpu: Tread 0 :: Base : 2350920, L1miss : 7928680, Branch : 1842963, D1miss : 273272, Wait : 0, Misc : 0, Total : 12395835
10206161000: system.cpu: -------------------------------------------------- 
<bad format>10206161000: system.cpu: Total Cycles :: 12100000 
10206161000: system.cpu: Tread 0 :: Base : 2363076, L1miss : 7997880, Branch : 1859674, D1miss : 277233, Wait : 0, Misc : 0, Total : 12497863
10338894000: system.cpu: -------------------------------------------------- 
<bad format>10338894000: system.cpu: Total Cycles :: 12200000 
10338894000: system.cpu: Tread 0 :: Base : 2375361, L1miss : 8064302, Branch : 1875420, D1miss : 280540, Wait : 0, Misc : 0, Total : 12595623
10462090000: system.cpu: -------------------------------------------------- 
<bad format>10462090000: system.cpu: Total Cycles :: 12300000 
10462090000: system.cpu: Tread 0 :: Base : 2387702, L1miss : 8131560, Branch : 1894141, D1miss : 283830, Wait : 0, Misc : 0, Total : 12697233
10587951500: system.cpu: -------------------------------------------------- 
<bad format>10587951500: system.cpu: Total Cycles :: 12400000 
10587951500: system.cpu: Tread 0 :: Base : 2400197, L1miss : 8200046, Branch : 1911190, D1miss : 287436, Wait : 0, Misc : 0, Total : 12798869
10711676500: system.cpu: -------------------------------------------------- 
<bad format>10711676500: system.cpu: Total Cycles :: 12500000 
10711676500: system.cpu: Tread 0 :: Base : 2412861, L1miss : 8267758, Branch : 1928269, D1miss : 291835, Wait : 0, Misc : 0, Total : 12900723
10834439000: system.cpu: -------------------------------------------------- 
<bad format>10834439000: system.cpu: Total Cycles :: 12600000 
10834439000: system.cpu: Tread 0 :: Base : 2425928, L1miss : 8335924, Branch : 1945866, D1miss : 296196, Wait : 0, Misc : 0, Total : 13003914
10957535500: system.cpu: -------------------------------------------------- 
<bad format>10957535500: system.cpu: Total Cycles :: 12700000 
10957535500: system.cpu: Tread 0 :: Base : 2438138, L1miss : 8403291, Branch : 1961712, D1miss : 300569, Wait : 0, Misc : 0, Total : 13103710
11087050500: system.cpu: -------------------------------------------------- 
<bad format>11087050500: system.cpu: Total Cycles :: 12800000 
11087050500: system.cpu: Tread 0 :: Base : 2450838, L1miss : 8473785, Branch : 1977327, D1miss : 303579, Wait : 0, Misc : 0, Total : 13205529
11201011500: system.cpu: -------------------------------------------------- 
<bad format>11201011500: system.cpu: Total Cycles :: 12900000 
11201011500: system.cpu: Tread 0 :: Base : 2464288, L1miss : 8538580, Branch : 1998032, D1miss : 308296, Wait : 0, Misc : 0, Total : 13309196
11312834500: system.cpu: RESET 0 0 0
11312834500: system.cpu: -------------------------------------------------- 
<bad format>11312834500: system.cpu: Total Cycles :: 13000000 
11312834500: system.cpu: Tread 0 :: Base : 2478899, L1miss : 8606877, Branch : 2015260, D1miss : 311096, Wait : 0, Misc : 0, Total : 13412132
11431245000: system.cpu: -------------------------------------------------- 
<bad format>11431245000: system.cpu: Total Cycles :: 13100000 
11431245000: system.cpu: Tread 0 :: Base : 2491935, L1miss : 8672719, Branch : 2032496, D1miss : 314486, Wait : 0, Misc : 0, Total : 13511636
11538173500: system.cpu: -------------------------------------------------- 
<bad format>11538173500: system.cpu: Total Cycles :: 13200000 
11538173500: system.cpu: Tread 0 :: Base : 2506895, L1miss : 8739740, Branch : 2051624, D1miss : 317587, Wait : 0, Misc : 0, Total : 13615846
11645263500: system.cpu: -------------------------------------------------- 
<bad format>11645263500: system.cpu: Total Cycles :: 13300000 
11645263500: system.cpu: Tread 0 :: Base : 2522067, L1miss : 8806892, Branch : 2069218, D1miss : 321298, Wait : 0, Misc : 0, Total : 13719475
11759494000: system.cpu: -------------------------------------------------- 
<bad format>11759494000: system.cpu: Total Cycles :: 13400000 
11759494000: system.cpu: Tread 0 :: Base : 2535636, L1miss : 8872512, Branch : 2089393, D1miss : 324970, Wait : 0, Misc : 0, Total : 13822511
11876857500: system.cpu: -------------------------------------------------- 
<bad format>11876857500: system.cpu: Total Cycles :: 13500000 
11876857500: system.cpu: Tread 0 :: Base : 2548726, L1miss : 8939087, Branch : 2108318, D1miss : 329408, Wait : 0, Misc : 0, Total : 13925539
11995797500: system.cpu: -------------------------------------------------- 
<bad format>11995797500: system.cpu: Total Cycles :: 13600000 
11995797500: system.cpu: Tread 0 :: Base : 2561806, L1miss : 9005269, Branch : 2125185, D1miss : 332696, Wait : 0, Misc : 0, Total : 14024956
12110294000: system.cpu: -------------------------------------------------- 
<bad format>12110294000: system.cpu: Total Cycles :: 13700000 
12110294000: system.cpu: Tread 0 :: Base : 2575411, L1miss : 9071361, Branch : 2145439, D1miss : 336014, Wait : 0, Misc : 0, Total : 14128225
12219372500: system.cpu: -------------------------------------------------- 
<bad format>12219372500: system.cpu: Total Cycles :: 13800000 
12219372500: system.cpu: Tread 0 :: Base : 2589567, L1miss : 9136984, Branch : 2164347, D1miss : 340195, Wait : 0, Misc : 0, Total : 14231093
12329925000: system.cpu: -------------------------------------------------- 
<bad format>12329925000: system.cpu: Total Cycles :: 13900000 
12329925000: system.cpu: Tread 0 :: Base : 2604000, L1miss : 9200766, Branch : 2183870, D1miss : 344598, Wait : 0, Misc : 0, Total : 14333234
12437653000: system.cpu: RESET 0 0 0
12437653000: system.cpu: -------------------------------------------------- 
<bad format>12437653000: system.cpu: Total Cycles :: 14000000 
12437653000: system.cpu: Tread 0 :: Base : 2618084, L1miss : 9266669, Branch : 2200498, D1miss : 349090, Wait : 0, Misc : 0, Total : 14434341
12543204500: system.cpu: -------------------------------------------------- 
<bad format>12543204500: system.cpu: Total Cycles :: 14100000 
12543204500: system.cpu: Tread 0 :: Base : 2633314, L1miss : 9332804, Branch : 2217967, D1miss : 352256, Wait : 0, Misc : 0, Total : 14536341
12650324500: system.cpu: -------------------------------------------------- 
<bad format>12650324500: system.cpu: Total Cycles :: 14200000 
12650324500: system.cpu: Tread 0 :: Base : 2647720, L1miss : 9397969, Branch : 2236820, D1miss : 356515, Wait : 0, Misc : 0, Total : 14639024
12774918500: system.cpu: -------------------------------------------------- 
<bad format>12774918500: system.cpu: Total Cycles :: 14300000 
12774918500: system.cpu: Tread 0 :: Base : 2660181, L1miss : 9463014, Branch : 2257353, D1miss : 361155, Wait : 0, Misc : 0, Total : 14741703
12881182000: system.cpu: -------------------------------------------------- 
<bad format>12881182000: system.cpu: Total Cycles :: 14400000 
12881182000: system.cpu: Tread 0 :: Base : 2674319, L1miss : 9526622, Branch : 2277938, D1miss : 364787, Wait : 0, Misc : 0, Total : 14843666
12995381000: system.cpu: -------------------------------------------------- 
<bad format>12995381000: system.cpu: Total Cycles :: 14500000 
12995381000: system.cpu: Tread 0 :: Base : 2688552, L1miss : 9591458, Branch : 2296003, D1miss : 368961, Wait : 0, Misc : 0, Total : 14944974
13126612000: system.cpu: -------------------------------------------------- 
<bad format>13126612000: system.cpu: Total Cycles :: 14600000 
13126612000: system.cpu: Tread 0 :: Base : 2700358, L1miss : 9658916, Branch : 2311378, D1miss : 373459, Wait : 0, Misc : 0, Total : 15044111
13246428000: system.cpu: -------------------------------------------------- 
<bad format>13246428000: system.cpu: Total Cycles :: 14700000 
13246428000: system.cpu: Tread 0 :: Base : 2713104, L1miss : 9726588, Branch : 2328222, D1miss : 376998, Wait : 0, Misc : 0, Total : 15144912
13373744500: system.cpu: -------------------------------------------------- 
<bad format>13373744500: system.cpu: Total Cycles :: 14800000 
13373744500: system.cpu: Tread 0 :: Base : 2725626, L1miss : 9793440, Branch : 2345919, D1miss : 381035, Wait : 0, Misc : 0, Total : 15246020
13491607500: system.cpu: -------------------------------------------------- 
<bad format>13491607500: system.cpu: Total Cycles :: 14900000 
13491607500: system.cpu: Tread 0 :: Base : 2737706, L1miss : 9858839, Branch : 2363377, D1miss : 385595, Wait : 0, Misc : 0, Total : 15345517
13612528000: system.cpu: RESET 0 0 0
13612528000: system.cpu: -------------------------------------------------- 
<bad format>13612528000: system.cpu: Total Cycles :: 15000000 
13612528000: system.cpu: Tread 0 :: Base : 2751063, L1miss : 9928653, Branch : 2379627, D1miss : 389084, Wait : 0, Misc : 0, Total : 15448427
13734416000: system.cpu: -------------------------------------------------- 
<bad format>13734416000: system.cpu: Total Cycles :: 15100000 
13734416000: system.cpu: Tread 0 :: Base : 2763346, L1miss : 9994997, Branch : 2397337, D1miss : 392264, Wait : 0, Misc : 0, Total : 15547944
13853423500: system.cpu: -------------------------------------------------- 
<bad format>13853423500: system.cpu: Total Cycles :: 15200000 
13853423500: system.cpu: Tread 0 :: Base : 2776225, L1miss : 10060602, Branch : 2414594, D1miss : 395852, Wait : 0, Misc : 0, Total : 15647273
13973854500: system.cpu: -------------------------------------------------- 
<bad format>13973854500: system.cpu: Total Cycles :: 15300000 
13973854500: system.cpu: Tread 0 :: Base : 2789545, L1miss : 10127089, Branch : 2432927, D1miss : 400117, Wait : 0, Misc : 0, Total : 15749678
14086363500: system.cpu: -------------------------------------------------- 
<bad format>14086363500: system.cpu: Total Cycles :: 15400000 
14086363500: system.cpu: Tread 0 :: Base : 2802779, L1miss : 10192002, Branch : 2453471, D1miss : 403352, Wait : 0, Misc : 0, Total : 15851604
14205563000: system.cpu: -------------------------------------------------- 
<bad format>14205563000: system.cpu: Total Cycles :: 15500000 
14205563000: system.cpu: Tread 0 :: Base : 2815907, L1miss : 10257874, Branch : 2470993, D1miss : 407299, Wait : 0, Misc : 0, Total : 15952073
14326067500: system.cpu: -------------------------------------------------- 
<bad format>14326067500: system.cpu: Total Cycles :: 15600000 
14326067500: system.cpu: Tread 0 :: Base : 2829603, L1miss : 10324586, Branch : 2489147, D1miss : 411700, Wait : 0, Misc : 0, Total : 16055036
14449338000: system.cpu: -------------------------------------------------- 
<bad format>14449338000: system.cpu: Total Cycles :: 15700000 
14449338000: system.cpu: Tread 0 :: Base : 2842035, L1miss : 10389429, Branch : 2505507, D1miss : 415427, Wait : 0, Misc : 0, Total : 16152398
14569771500: system.cpu: -------------------------------------------------- 
<bad format>14569771500: system.cpu: Total Cycles :: 15800000 
14569771500: system.cpu: Tread 0 :: Base : 2855644, L1miss : 10457775, Branch : 2523051, D1miss : 418819, Wait : 0, Misc : 0, Total : 16255289
14690331000: system.cpu: -------------------------------------------------- 
<bad format>14690331000: system.cpu: Total Cycles :: 15900000 
14690331000: system.cpu: Tread 0 :: Base : 2869078, L1miss : 10523642, Branch : 2542861, D1miss : 422832, Wait : 0, Misc : 0, Total : 16358413
14804699000: system.cpu: RESET 0 0 0
14804699000: system.cpu: -------------------------------------------------- 
<bad format>14804699000: system.cpu: Total Cycles :: 16000000 
14804699000: system.cpu: Tread 0 :: Base : 2882377, L1miss : 10588407, Branch : 2560231, D1miss : 426292, Wait : 0, Misc : 0, Total : 16457307
14922729500: system.cpu: -------------------------------------------------- 
<bad format>14922729500: system.cpu: Total Cycles :: 16100000 
14922729500: system.cpu: Tread 0 :: Base : 2895207, L1miss : 10655106, Branch : 2578565, D1miss : 429542, Wait : 0, Misc : 0, Total : 16558420
15035126500: system.cpu: -------------------------------------------------- 
<bad format>15035126500: system.cpu: Total Cycles :: 16200000 
15035126500: system.cpu: Tread 0 :: Base : 2909388, L1miss : 10723409, Branch : 2596269, D1miss : 432638, Wait : 0, Misc : 0, Total : 16661704
15154945500: system.cpu: -------------------------------------------------- 
<bad format>15154945500: system.cpu: Total Cycles :: 16300000 
15154945500: system.cpu: Tread 0 :: Base : 2922134, L1miss : 10789335, Branch : 2613978, D1miss : 436956, Wait : 0, Misc : 0, Total : 16762403
15275047000: system.cpu: -------------------------------------------------- 
<bad format>15275047000: system.cpu: Total Cycles :: 16400000 
15275047000: system.cpu: Tread 0 :: Base : 2935420, L1miss : 10857021, Branch : 2632930, D1miss : 440066, Wait : 0, Misc : 0, Total : 16865437
15397020000: system.cpu: -------------------------------------------------- 
<bad format>15397020000: system.cpu: Total Cycles :: 16500000 
15397020000: system.cpu: Tread 0 :: Base : 2948905, L1miss : 10924378, Branch : 2651322, D1miss : 444254, Wait : 0, Misc : 0, Total : 16968859
15517850500: system.cpu: -------------------------------------------------- 
<bad format>15517850500: system.cpu: Total Cycles :: 16600000 
15517850500: system.cpu: Tread 0 :: Base : 2961646, L1miss : 10991391, Branch : 2671049, D1miss : 448808, Wait : 0, Misc : 0, Total : 17072894
15633883500: system.cpu: -------------------------------------------------- 
<bad format>15633883500: system.cpu: Total Cycles :: 16700000 
15633883500: system.cpu: Tread 0 :: Base : 2974215, L1miss : 11055669, Branch : 2691097, D1miss : 452707, Wait : 0, Misc : 0, Total : 17173688
15750873000: system.cpu: -------------------------------------------------- 
<bad format>15750873000: system.cpu: Total Cycles :: 16800000 
15750873000: system.cpu: Tread 0 :: Base : 2987023, L1miss : 11122524, Branch : 2708339, D1miss : 456755, Wait : 0, Misc : 0, Total : 17274641
15874261000: system.cpu: -------------------------------------------------- 
<bad format>15874261000: system.cpu: Total Cycles :: 16900000 
15874261000: system.cpu: Tread 0 :: Base : 2999886, L1miss : 11190273, Branch : 2723472, D1miss : 460430, Wait : 0, Misc : 0, Total : 17374061
15985928500: system.cpu: RESET 0 0 0
15985928500: system.cpu: -------------------------------------------------- 
<bad format>15985928500: system.cpu: Total Cycles :: 17000000 
15985928500: system.cpu: Tread 0 :: Base : 3013605, L1miss : 11257479, Branch : 2740840, D1miss : 465026, Wait : 0, Misc : 0, Total : 17476950
16104964500: system.cpu: -------------------------------------------------- 
<bad format>16104964500: system.cpu: Total Cycles :: 17100000 
16104964500: system.cpu: Tread 0 :: Base : 3026991, L1miss : 11326236, Branch : 2758604, D1miss : 468919, Wait : 0, Misc : 0, Total : 17580750
16227154500: system.cpu: -------------------------------------------------- 
<bad format>16227154500: system.cpu: Total Cycles :: 17200000 
16227154500: system.cpu: Tread 0 :: Base : 3039684, L1miss : 11392379, Branch : 2774540, D1miss : 473198, Wait : 0, Misc : 0, Total : 17679801
16348332000: system.cpu: -------------------------------------------------- 
<bad format>16348332000: system.cpu: Total Cycles :: 17300000 
16348332000: system.cpu: Tread 0 :: Base : 3053436, L1miss : 11461166, Branch : 2791342, D1miss : 476606, Wait : 0, Misc : 0, Total : 17782550
16463750000: system.cpu: -------------------------------------------------- 
<bad format>16463750000: system.cpu: Total Cycles :: 17400000 
16463750000: system.cpu: Tread 0 :: Base : 3067154, L1miss : 11529298, Branch : 2807774, D1miss : 480879, Wait : 0, Misc : 0, Total : 17885105
16589465000: system.cpu: -------------------------------------------------- 
<bad format>16589465000: system.cpu: Total Cycles :: 17500000 
16589465000: system.cpu: Tread 0 :: Base : 3079968, L1miss : 11597327, Branch : 2824019, D1miss : 484120, Wait : 0, Misc : 0, Total : 17985434
16709273000: system.cpu: -------------------------------------------------- 
<bad format>16709273000: system.cpu: Total Cycles :: 17600000 
16709273000: system.cpu: Tread 0 :: Base : 3093438, L1miss : 11665385, Branch : 2842067, D1miss : 487282, Wait : 0, Misc : 0, Total : 18088172
16829808000: system.cpu: -------------------------------------------------- 
<bad format>16829808000: system.cpu: Total Cycles :: 17700000 
16829808000: system.cpu: Tread 0 :: Base : 3106216, L1miss : 11733524, Branch : 2859894, D1miss : 490256, Wait : 0, Misc : 0, Total : 18189890
16942229000: system.cpu: -------------------------------------------------- 
<bad format>16942229000: system.cpu: Total Cycles :: 17800000 
16942229000: system.cpu: Tread 0 :: Base : 3119947, L1miss : 11798697, Branch : 2878050, D1miss : 493972, Wait : 0, Misc : 0, Total : 18290666
17063251500: system.cpu: -------------------------------------------------- 
<bad format>17063251500: system.cpu: Total Cycles :: 17900000 
17063251500: system.cpu: Tread 0 :: Base : 3133146, L1miss : 11865852, Branch : 2897171, D1miss : 497766, Wait : 0, Misc : 0, Total : 18393935
17183340000: system.cpu: RESET 0 0 0
17183340000: system.cpu: -------------------------------------------------- 
<bad format>17183340000: system.cpu: Total Cycles :: 18000000 
17183340000: system.cpu: Tread 0 :: Base : 3145543, L1miss : 11931677, Branch : 2915080, D1miss : 501190, Wait : 0, Misc : 0, Total : 18493490
17299638000: system.cpu: -------------------------------------------------- 
<bad format>17299638000: system.cpu: Total Cycles :: 18100000 
17299638000: system.cpu: Tread 0 :: Base : 3159105, L1miss : 11998746, Branch : 2933175, D1miss : 505277, Wait : 0, Misc : 0, Total : 18596303
17413277500: system.cpu: -------------------------------------------------- 
<bad format>17413277500: system.cpu: Total Cycles :: 18200000 
17413277500: system.cpu: Tread 0 :: Base : 3172432, L1miss : 12064190, Branch : 2954243, D1miss : 509830, Wait : 0, Misc : 0, Total : 18700695
17534385500: system.cpu: -------------------------------------------------- 
<bad format>17534385500: system.cpu: Total Cycles :: 18300000 
17534385500: system.cpu: Tread 0 :: Base : 3185318, L1miss : 12132868, Branch : 2973988, D1miss : 512774, Wait : 0, Misc : 0, Total : 18804948
17646451500: system.cpu: -------------------------------------------------- 
<bad format>17646451500: system.cpu: Total Cycles :: 18400000 
17646451500: system.cpu: Tread 0 :: Base : 3198877, L1miss : 12199359, Branch : 2993606, D1miss : 517127, Wait : 0, Misc : 0, Total : 18908969
17763124500: system.cpu: -------------------------------------------------- 
<bad format>17763124500: system.cpu: Total Cycles :: 18500000 
17763124500: system.cpu: Tread 0 :: Base : 3211506, L1miss : 12264630, Branch : 3010925, D1miss : 521179, Wait : 0, Misc : 0, Total : 19008240
17883200500: system.cpu: -------------------------------------------------- 
<bad format>17883200500: system.cpu: Total Cycles :: 18600000 
17883200500: system.cpu: Tread 0 :: Base : 3224859, L1miss : 12331449, Branch : 3030026, D1miss : 525204, Wait : 0, Misc : 0, Total : 19111538
17996518500: system.cpu: -------------------------------------------------- 
<bad format>17996518500: system.cpu: Total Cycles :: 18700000 
17996518500: system.cpu: Tread 0 :: Base : 3237832, L1miss : 12395000, Branch : 3048187, D1miss : 529972, Wait : 0, Misc : 0, Total : 19210991
18117780000: system.cpu: -------------------------------------------------- 
<bad format>18117780000: system.cpu: Total Cycles :: 18800000 
18117780000: system.cpu: Tread 0 :: Base : 3250732, L1miss : 12461365, Branch : 3067672, D1miss : 533288, Wait : 0, Misc : 0, Total : 19313057
18242354500: system.cpu: -------------------------------------------------- 
<bad format>18242354500: system.cpu: Total Cycles :: 18900000 
18242354500: system.cpu: Tread 0 :: Base : 3262591, L1miss : 12526677, Branch : 3085372, D1miss : 538865, Wait : 0, Misc : 0, Total : 19413505
18359037500: system.cpu: RESET 0 0 0
18359037500: system.cpu: -------------------------------------------------- 
<bad format>18359037500: system.cpu: Total Cycles :: 19000000 
18359037500: system.cpu: Tread 0 :: Base : 3276352, L1miss : 12594153, Branch : 3102882, D1miss : 542432, Wait : 0, Misc : 0, Total : 19515819
18475107000: system.cpu: -------------------------------------------------- 
<bad format>18475107000: system.cpu: Total Cycles :: 19100000 
18475107000: system.cpu: Tread 0 :: Base : 3289479, L1miss : 12662969, Branch : 3121345, D1miss : 546132, Wait : 0, Misc : 0, Total : 19619925
18594527000: system.cpu: -------------------------------------------------- 
<bad format>18594527000: system.cpu: Total Cycles :: 19200000 
18594527000: system.cpu: Tread 0 :: Base : 3302010, L1miss : 12728610, Branch : 3139070, D1miss : 549216, Wait : 0, Misc : 0, Total : 19718906
18717353500: system.cpu: -------------------------------------------------- 
<bad format>18717353500: system.cpu: Total Cycles :: 19300000 
18717353500: system.cpu: Tread 0 :: Base : 3314280, L1miss : 12794309, Branch : 3158256, D1miss : 554252, Wait : 0, Misc : 0, Total : 19821097
18835284000: system.cpu: -------------------------------------------------- 
<bad format>18835284000: system.cpu: Total Cycles :: 19400000 
18835284000: system.cpu: Tread 0 :: Base : 3327381, L1miss : 12860298, Branch : 3177164, D1miss : 557803, Wait : 0, Misc : 0, Total : 19922646
18960672000: system.cpu: -------------------------------------------------- 
<bad format>18960672000: system.cpu: Total Cycles :: 19500000 
18960672000: system.cpu: Tread 0 :: Base : 3340631, L1miss : 12927735, Branch : 3196295, D1miss : 562090, Wait : 0, Misc : 0, Total : 20026751
19082503000: system.cpu: -------------------------------------------------- 
<bad format>19082503000: system.cpu: Total Cycles :: 19600000 
19082503000: system.cpu: Tread 0 :: Base : 3353402, L1miss : 12993635, Branch : 3213601, D1miss : 565825, Wait : 0, Misc : 0, Total : 20126463
19203830500: system.cpu: -------------------------------------------------- 
<bad format>19203830500: system.cpu: Total Cycles :: 19700000 
19203830500: system.cpu: Tread 0 :: Base : 3366806, L1miss : 13059286, Branch : 3232055, D1miss : 570098, Wait : 0, Misc : 0, Total : 20228245
19324252000: system.cpu: -------------------------------------------------- 
<bad format>19324252000: system.cpu: Total Cycles :: 19800000 
19324252000: system.cpu: Tread 0 :: Base : 3379543, L1miss : 13126653, Branch : 3249228, D1miss : 573143, Wait : 0, Misc : 0, Total : 20328567
19447098000: system.cpu: -------------------------------------------------- 
<bad format>19447098000: system.cpu: Total Cycles :: 19900000 
19447098000: system.cpu: Tread 0 :: Base : 3392169, L1miss : 13195199, Branch : 3268972, D1miss : 577211, Wait : 0, Misc : 0, Total : 20433551
19568910500: system.cpu: RESET 0 0 0
19568910500: system.cpu: -------------------------------------------------- 
<bad format>19568910500: system.cpu: Total Cycles :: 20000000 
19568910500: system.cpu: Tread 0 :: Base : 3405254, L1miss : 13262846, Branch : 3287306, D1miss : 582430, Wait : 0, Misc : 0, Total : 20537836
19690838000: system.cpu: -------------------------------------------------- 
<bad format>19690838000: system.cpu: Total Cycles :: 20100000 
19690838000: system.cpu: Tread 0 :: Base : 3417953, L1miss : 13330264, Branch : 3303036, D1miss : 586710, Wait : 0, Misc : 0, Total : 20637963
19813185500: system.cpu: -------------------------------------------------- 
<bad format>19813185500: system.cpu: Total Cycles :: 20200000 
19813185500: system.cpu: Tread 0 :: Base : 3430627, L1miss : 13397085, Branch : 3319546, D1miss : 591336, Wait : 0, Misc : 0, Total : 20738594
19936648000: system.cpu: -------------------------------------------------- 
<bad format>19936648000: system.cpu: Total Cycles :: 20300000 
19936648000: system.cpu: Tread 0 :: Base : 3443775, L1miss : 13465317, Branch : 3337138, D1miss : 595259, Wait : 0, Misc : 0, Total : 20841489
20059808500: system.cpu: -------------------------------------------------- 
<bad format>20059808500: system.cpu: Total Cycles :: 20400000 
20059808500: system.cpu: Tread 0 :: Base : 3456360, L1miss : 13532144, Branch : 3352612, D1miss : 599514, Wait : 0, Misc : 0, Total : 20940630
20183335000: system.cpu: -------------------------------------------------- 
<bad format>20183335000: system.cpu: Total Cycles :: 20500000 
20183335000: system.cpu: Tread 0 :: Base : 3469260, L1miss : 13599268, Branch : 3370431, D1miss : 605163, Wait : 0, Misc : 0, Total : 21044122
20311281500: system.cpu: -------------------------------------------------- 
<bad format>20311281500: system.cpu: Total Cycles :: 20600000 
20311281500: system.cpu: Tread 0 :: Base : 3482734, L1miss : 13669606, Branch : 3386473, D1miss : 608150, Wait : 0, Misc : 0, Total : 21146963
20435202500: system.cpu: -------------------------------------------------- 
<bad format>20435202500: system.cpu: Total Cycles :: 20700000 
20435202500: system.cpu: Tread 0 :: Base : 3494818, L1miss : 13735413, Branch : 3403532, D1miss : 612443, Wait : 0, Misc : 0, Total : 21246206
20555686000: system.cpu: -------------------------------------------------- 
<bad format>20555686000: system.cpu: Total Cycles :: 20800000 
20555686000: system.cpu: Tread 0 :: Base : 3507389, L1miss : 13803480, Branch : 3419739, D1miss : 616551, Wait : 0, Misc : 0, Total : 21347159
20675161000: system.cpu: -------------------------------------------------- 
<bad format>20675161000: system.cpu: Total Cycles :: 20900000 
20675161000: system.cpu: Tread 0 :: Base : 3520136, L1miss : 13872162, Branch : 3437628, D1miss : 620451, Wait : 0, Misc : 0, Total : 21450377
20795641000: system.cpu: RESET 0 0 0
20795641000: system.cpu: -------------------------------------------------- 
<bad format>20795641000: system.cpu: Total Cycles :: 21000000 
20795641000: system.cpu: Tread 0 :: Base : 3532452, L1miss : 13938341, Branch : 3454315, D1miss : 625014, Wait : 0, Misc : 0, Total : 21550122
20919594000: system.cpu: -------------------------------------------------- 
<bad format>20919594000: system.cpu: Total Cycles :: 21100000 
20919594000: system.cpu: Tread 0 :: Base : 3544872, L1miss : 14006913, Branch : 3473724, D1miss : 628451, Wait : 0, Misc : 0, Total : 21653960
21039808500: system.cpu: -------------------------------------------------- 
<bad format>21039808500: system.cpu: Total Cycles :: 21200000 
21039808500: system.cpu: Tread 0 :: Base : 3557363, L1miss : 14074701, Branch : 3492337, D1miss : 633542, Wait : 0, Misc : 0, Total : 21757943
21162828000: system.cpu: -------------------------------------------------- 
<bad format>21162828000: system.cpu: Total Cycles :: 21300000 
21162828000: system.cpu: Tread 0 :: Base : 3569116, L1miss : 14142705, Branch : 3507151, D1miss : 637778, Wait : 0, Misc : 0, Total : 21856750
21278381000: system.cpu: -------------------------------------------------- 
<bad format>21278381000: system.cpu: Total Cycles :: 21400000 
21278381000: system.cpu: Tread 0 :: Base : 3581876, L1miss : 14211783, Branch : 3522865, D1miss : 641647, Wait : 0, Misc : 0, Total : 21958171
21396057000: system.cpu: -------------------------------------------------- 
<bad format>21396057000: system.cpu: Total Cycles :: 21500000 
21396057000: system.cpu: Tread 0 :: Base : 3594392, L1miss : 14279897, Branch : 3537489, D1miss : 646191, Wait : 0, Misc : 0, Total : 22057969
21517463500: system.cpu: -------------------------------------------------- 
<bad format>21517463500: system.cpu: Total Cycles :: 21600000 
21517463500: system.cpu: Tread 0 :: Base : 3607329, L1miss : 14346496, Branch : 3555314, D1miss : 650365, Wait : 0, Misc : 0, Total : 22159504
21629108000: system.cpu: -------------------------------------------------- 
<bad format>21629108000: system.cpu: Total Cycles :: 21700000 
21629108000: system.cpu: Tread 0 :: Base : 3620001, L1miss : 14413726, Branch : 3571984, D1miss : 655615, Wait : 0, Misc : 0, Total : 22261326
21746700000: system.cpu: -------------------------------------------------- 
<bad format>21746700000: system.cpu: Total Cycles :: 21800000 
21746700000: system.cpu: Tread 0 :: Base : 3633262, L1miss : 14480953, Branch : 3591831, D1miss : 659432, Wait : 0, Misc : 0, Total : 22365478
21866519000: system.cpu: -------------------------------------------------- 
<bad format>21866519000: system.cpu: Total Cycles :: 21900000 
21866519000: system.cpu: Tread 0 :: Base : 3646381, L1miss : 14547639, Branch : 3611060, D1miss : 663599, Wait : 0, Misc : 0, Total : 22468679
21980045500: system.cpu: RESET 0 0 0
21980045500: system.cpu: -------------------------------------------------- 
<bad format>21980045500: system.cpu: Total Cycles :: 22000000 
21980045500: system.cpu: Tread 0 :: Base : 3659978, L1miss : 14614555, Branch : 3628349, D1miss : 667477, Wait : 0, Misc : 0, Total : 22570359
22097568500: system.cpu: -------------------------------------------------- 
<bad format>22097568500: system.cpu: Total Cycles :: 22100000 
22097568500: system.cpu: Tread 0 :: Base : 3673102, L1miss : 14683339, Branch : 3645056, D1miss : 671663, Wait : 0, Misc : 0, Total : 22673160
22218693500: system.cpu: -------------------------------------------------- 
<bad format>22218693500: system.cpu: Total Cycles :: 22200000 
22218693500: system.cpu: Tread 0 :: Base : 3686248, L1miss : 14751483, Branch : 3663882, D1miss : 674748, Wait : 0, Misc : 0, Total : 22776361
22331569500: system.cpu: -------------------------------------------------- 
<bad format>22331569500: system.cpu: Total Cycles :: 22300000 
22331569500: system.cpu: Tread 0 :: Base : 3700093, L1miss : 14819318, Branch : 3682748, D1miss : 678623, Wait : 0, Misc : 0, Total : 22880782
22452095000: system.cpu: -------------------------------------------------- 
<bad format>22452095000: system.cpu: Total Cycles :: 22400000 
22452095000: system.cpu: Tread 0 :: Base : 3714031, L1miss : 14885630, Branch : 3700526, D1miss : 682409, Wait : 0, Misc : 0, Total : 22982596
22573480000: system.cpu: -------------------------------------------------- 
<bad format>22573480000: system.cpu: Total Cycles :: 22500000 
22573480000: system.cpu: Tread 0 :: Base : 3726798, L1miss : 14953989, Branch : 3715126, D1miss : 686232, Wait : 0, Misc : 0, Total : 23082145
22692885500: system.cpu: -------------------------------------------------- 
<bad format>22692885500: system.cpu: Total Cycles :: 22600000 
22692885500: system.cpu: Tread 0 :: Base : 3740268, L1miss : 15021622, Branch : 3733083, D1miss : 690389, Wait : 0, Misc : 0, Total : 23185362
22814442000: system.cpu: -------------------------------------------------- 
<bad format>22814442000: system.cpu: Total Cycles :: 22700000 
22814442000: system.cpu: Tread 0 :: Base : 3754016, L1miss : 15090675, Branch : 3748764, D1miss : 693624, Wait : 0, Misc : 0, Total : 23287079
22927623500: system.cpu: -------------------------------------------------- 
<bad format>22927623500: system.cpu: Total Cycles :: 22800000 
22927623500: system.cpu: Tread 0 :: Base : 3767354, L1miss : 15157461, Branch : 3765632, D1miss : 697796, Wait : 0, Misc : 0, Total : 23388243
23046780000: system.cpu: -------------------------------------------------- 
<bad format>23046780000: system.cpu: Total Cycles :: 22900000 
23046780000: system.cpu: Tread 0 :: Base : 3780622, L1miss : 15225130, Branch : 3783296, D1miss : 701214, Wait : 0, Misc : 0, Total : 23490262
23162846500: system.cpu: RESET 0 0 0
23162846500: system.cpu: -------------------------------------------------- 
<bad format>23162846500: system.cpu: Total Cycles :: 23000000 
23162846500: system.cpu: Tread 0 :: Base : 3794679, L1miss : 15291405, Branch : 3801788, D1miss : 704761, Wait : 0, Misc : 0, Total : 23592633
23283927500: system.cpu: -------------------------------------------------- 
<bad format>23283927500: system.cpu: Total Cycles :: 23100000 
23283927500: system.cpu: Tread 0 :: Base : 3807562, L1miss : 15360058, Branch : 3818376, D1miss : 708353, Wait : 0, Misc : 0, Total : 23694349
23401247000: system.cpu: -------------------------------------------------- 
<bad format>23401247000: system.cpu: Total Cycles :: 23200000 
23401247000: system.cpu: Tread 0 :: Base : 3821386, L1miss : 15428360, Branch : 3835970, D1miss : 712039, Wait : 0, Misc : 0, Total : 23797755
23521896500: system.cpu: -------------------------------------------------- 
<bad format>23521896500: system.cpu: Total Cycles :: 23300000 
23521896500: system.cpu: Tread 0 :: Base : 3833997, L1miss : 15495226, Branch : 3852500, D1miss : 716376, Wait : 0, Misc : 0, Total : 23898099
23644660500: system.cpu: -------------------------------------------------- 
<bad format>23644660500: system.cpu: Total Cycles :: 23400000 
23644660500: system.cpu: Tread 0 :: Base : 3847557, L1miss : 15564822, Branch : 3868081, D1miss : 719912, Wait : 0, Misc : 0, Total : 24000372
23756719000: system.cpu: -------------------------------------------------- 
<bad format>23756719000: system.cpu: Total Cycles :: 23500000 
23756719000: system.cpu: Tread 0 :: Base : 3860636, L1miss : 15629943, Branch : 3886257, D1miss : 724330, Wait : 0, Misc : 0, Total : 24101166
23881542500: system.cpu: -------------------------------------------------- 
<bad format>23881542500: system.cpu: Total Cycles :: 23600000 
23881542500: system.cpu: Tread 0 :: Base : 3873168, L1miss : 15697705, Branch : 3904194, D1miss : 727183, Wait : 0, Misc : 0, Total : 24202250
24006059500: system.cpu: -------------------------------------------------- 
<bad format>24006059500: system.cpu: Total Cycles :: 23700000 
24006059500: system.cpu: Tread 0 :: Base : 3886057, L1miss : 15766204, Branch : 3920361, D1miss : 730576, Wait : 0, Misc : 0, Total : 24303198
24130567000: system.cpu: -------------------------------------------------- 
<bad format>24130567000: system.cpu: Total Cycles :: 23800000 
24130567000: system.cpu: Tread 0 :: Base : 3898977, L1miss : 15836013, Branch : 3936726, D1miss : 734014, Wait : 0, Misc : 0, Total : 24405730
24252399500: system.cpu: -------------------------------------------------- 
<bad format>24252399500: system.cpu: Total Cycles :: 23900000 
24252399500: system.cpu: Tread 0 :: Base : 3911859, L1miss : 15904291, Branch : 3953287, D1miss : 737600, Wait : 0, Misc : 0, Total : 24507037
24374452000: system.cpu: RESET 0 0 0
24374452000: system.cpu: -------------------------------------------------- 
<bad format>24374452000: system.cpu: Total Cycles :: 24000000 
24374452000: system.cpu: Tread 0 :: Base : 3924971, L1miss : 15972633, Branch : 3969094, D1miss : 740686, Wait : 0, Misc : 0, Total : 24607384
24492296500: system.cpu: -------------------------------------------------- 
<bad format>24492296500: system.cpu: Total Cycles :: 24100000 
24492296500: system.cpu: Tread 0 :: Base : 3938551, L1miss : 16040138, Branch : 3987288, D1miss : 744880, Wait : 0, Misc : 0, Total : 24710857
24610431500: system.cpu: -------------------------------------------------- 
<bad format>24610431500: system.cpu: Total Cycles :: 24200000 
24610431500: system.cpu: Tread 0 :: Base : 3951217, L1miss : 16108178, Branch : 4004496, D1miss : 747490, Wait : 0, Misc : 0, Total : 24811381
24722690000: system.cpu: -------------------------------------------------- 
<bad format>24722690000: system.cpu: Total Cycles :: 24300000 
24722690000: system.cpu: Tread 0 :: Base : 3964896, L1miss : 16174256, Branch : 4023274, D1miss : 750533, Wait : 0, Misc : 0, Total : 24912959
24840899000: system.cpu: -------------------------------------------------- 
<bad format>24840899000: system.cpu: Total Cycles :: 24400000 
24840899000: system.cpu: Tread 0 :: Base : 3978314, L1miss : 16241087, Branch : 4041140, D1miss : 754540, Wait : 0, Misc : 0, Total : 25015081
24964252500: system.cpu: -------------------------------------------------- 
<bad format>24964252500: system.cpu: Total Cycles :: 24500000 
24964252500: system.cpu: Tread 0 :: Base : 3991126, L1miss : 16307355, Branch : 4058555, D1miss : 758332, Wait : 0, Misc : 0, Total : 25115368
25076522500: system.cpu: -------------------------------------------------- 
<bad format>25076522500: system.cpu: Total Cycles :: 24600000 
25076522500: system.cpu: Tread 0 :: Base : 4004578, L1miss : 16374693, Branch : 4076571, D1miss : 761859, Wait : 0, Misc : 0, Total : 25217701
25189455500: system.cpu: -------------------------------------------------- 
<bad format>25189455500: system.cpu: Total Cycles :: 24700000 
25189455500: system.cpu: Tread 0 :: Base : 4017952, L1miss : 16441467, Branch : 4096388, D1miss : 766521, Wait : 0, Misc : 0, Total : 25322328
25309083500: system.cpu: -------------------------------------------------- 
<bad format>25309083500: system.cpu: Total Cycles :: 24800000 
25309083500: system.cpu: Tread 0 :: Base : 4030971, L1miss : 16508786, Branch : 4115227, D1miss : 770190, Wait : 0, Misc : 0, Total : 25425174
25427635000: system.cpu: -------------------------------------------------- 
<bad format>25427635000: system.cpu: Total Cycles :: 24900000 
25427635000: system.cpu: Tread 0 :: Base : 4043988, L1miss : 16575528, Branch : 4135880, D1miss : 774138, Wait : 0, Misc : 0, Total : 25529534
25538424000: system.cpu: RESET 0 0 0
25538424000: system.cpu: -------------------------------------------------- 
<bad format>25538424000: system.cpu: Total Cycles :: 25000000 
25538424000: system.cpu: Tread 0 :: Base : 4058016, L1miss : 16641511, Branch : 4154221, D1miss : 778107, Wait : 0, Misc : 0, Total : 25631855
25661096000: system.cpu: -------------------------------------------------- 
<bad format>25661096000: system.cpu: Total Cycles :: 25100000 
25661096000: system.cpu: Tread 0 :: Base : 4070362, L1miss : 16710008, Branch : 4171238, D1miss : 781294, Wait : 0, Misc : 0, Total : 25732902
25796582500: system.cpu: -------------------------------------------------- 
<bad format>25796582500: system.cpu: Total Cycles :: 25200000 
25796582500: system.cpu: Tread 0 :: Base : 4082549, L1miss : 16780483, Branch : 4185873, D1miss : 784361, Wait : 0, Misc : 0, Total : 25833266
25934557000: system.cpu: -------------------------------------------------- 
<bad format>25934557000: system.cpu: Total Cycles :: 25300000 
25934557000: system.cpu: Tread 0 :: Base : 4094705, L1miss : 16851300, Branch : 4199639, D1miss : 788614, Wait : 0, Misc : 0, Total : 25934258
26064705000: system.cpu: -------------------------------------------------- 
<bad format>26064705000: system.cpu: Total Cycles :: 25400000 
26064705000: system.cpu: Tread 0 :: Base : 4106689, L1miss : 16918428, Branch : 4212124, D1miss : 792970, Wait : 0, Misc : 0, Total : 26030211
26197885500: system.cpu: -------------------------------------------------- 
<bad format>26197885500: system.cpu: Total Cycles :: 25500000 
26197885500: system.cpu: Tread 0 :: Base : 4119129, L1miss : 16987814, Branch : 4225828, D1miss : 798418, Wait : 0, Misc : 0, Total : 26131189
26333202000: system.cpu: -------------------------------------------------- 
<bad format>26333202000: system.cpu: Total Cycles :: 25600000 
26333202000: system.cpu: Tread 0 :: Base : 4130455, L1miss : 17056160, Branch : 4238206, D1miss : 802358, Wait : 0, Misc : 0, Total : 26227179
26465568500: system.cpu: -------------------------------------------------- 
<bad format>26465568500: system.cpu: Total Cycles :: 25700000 
26465568500: system.cpu: Tread 0 :: Base : 4142816, L1miss : 17125289, Branch : 4253007, D1miss : 807254, Wait : 0, Misc : 0, Total : 26328366
26598794000: system.cpu: -------------------------------------------------- 
<bad format>26598794000: system.cpu: Total Cycles :: 25800000 
26598794000: system.cpu: Tread 0 :: Base : 4155052, L1miss : 17195759, Branch : 4264310, D1miss : 811208, Wait : 0, Misc : 0, Total : 26426329
26730827000: system.cpu: -------------------------------------------------- 
<bad format>26730827000: system.cpu: Total Cycles :: 25900000 
26730827000: system.cpu: Tread 0 :: Base : 4167110, L1miss : 17266412, Branch : 4278589, D1miss : 815485, Wait : 0, Misc : 0, Total : 26527596
26853056500: system.cpu: RESET 0 0 0
26853056500: system.cpu: -------------------------------------------------- 
<bad format>26853056500: system.cpu: Total Cycles :: 26000000 
26853056500: system.cpu: Tread 0 :: Base : 4180284, L1miss : 17334307, Branch : 4296273, D1miss : 820058, Wait : 0, Misc : 0, Total : 26630922
26968693500: system.cpu: -------------------------------------------------- 
<bad format>26968693500: system.cpu: Total Cycles :: 26100000 
26968693500: system.cpu: Tread 0 :: Base : 4193244, L1miss : 17399247, Branch : 4315442, D1miss : 823699, Wait : 0, Misc : 0, Total : 26731632
27082201500: system.cpu: -------------------------------------------------- 
<bad format>27082201500: system.cpu: Total Cycles :: 26200000 
27082201500: system.cpu: Tread 0 :: Base : 4206601, L1miss : 17465198, Branch : 4334991, D1miss : 827508, Wait : 0, Misc : 0, Total : 26834298
27199891500: system.cpu: -------------------------------------------------- 
<bad format>27199891500: system.cpu: Total Cycles :: 26300000 
27199891500: system.cpu: Tread 0 :: Base : 4219589, L1miss : 17530708, Branch : 4352679, D1miss : 830613, Wait : 0, Misc : 0, Total : 26933589
27329299000: system.cpu: -------------------------------------------------- 
<bad format>27329299000: system.cpu: Total Cycles :: 26400000 
27329299000: system.cpu: Tread 0 :: Base : 4231595, L1miss : 17600891, Branch : 4368589, D1miss : 833565, Wait : 0, Misc : 0, Total : 27034640
27450506000: system.cpu: -------------------------------------------------- 
<bad format>27450506000: system.cpu: Total Cycles :: 26500000 
27450506000: system.cpu: Tread 0 :: Base : 4243892, L1miss : 17667116, Branch : 4385069, D1miss : 837789, Wait : 0, Misc : 0, Total : 27133866
27566515500: system.cpu: -------------------------------------------------- 
<bad format>27566515500: system.cpu: Total Cycles :: 26600000 
27566515500: system.cpu: Tread 0 :: Base : 4257635, L1miss : 17734365, Branch : 4404908, D1miss : 840392, Wait : 0, Misc : 0, Total : 27237300
27689361000: system.cpu: -------------------------------------------------- 
<bad format>27689361000: system.cpu: Total Cycles :: 26700000 
27689361000: system.cpu: Tread 0 :: Base : 4269790, L1miss : 17800423, Branch : 4420891, D1miss : 843437, Wait : 0, Misc : 0, Total : 27334541
27814914500: system.cpu: -------------------------------------------------- 
<bad format>27814914500: system.cpu: Total Cycles :: 26800000 
27814914500: system.cpu: Tread 0 :: Base : 4282754, L1miss : 17869008, Branch : 4437988, D1miss : 847373, Wait : 0, Misc : 0, Total : 27437123
27934216500: system.cpu: -------------------------------------------------- 
<bad format>27934216500: system.cpu: Total Cycles :: 26900000 
27934216500: system.cpu: Tread 0 :: Base : 4295776, L1miss : 17936373, Branch : 4456319, D1miss : 850314, Wait : 0, Misc : 0, Total : 27538782
28059806500: system.cpu: RESET 0 0 0
28059806500: system.cpu: -------------------------------------------------- 
<bad format>28059806500: system.cpu: Total Cycles :: 27000000 
28059806500: system.cpu: Tread 0 :: Base : 4308138, L1miss : 18005107, Branch : 4473508, D1miss : 854046, Wait : 0, Misc : 0, Total : 27640799
28182693500: system.cpu: -------------------------------------------------- 
<bad format>28182693500: system.cpu: Total Cycles :: 27100000 
28182693500: system.cpu: Tread 0 :: Base : 4320769, L1miss : 18073834, Branch : 4489863, D1miss : 858711, Wait : 0, Misc : 0, Total : 27743177
28304160500: system.cpu: -------------------------------------------------- 
<bad format>28304160500: system.cpu: Total Cycles :: 27200000 
28304160500: system.cpu: Tread 0 :: Base : 4333944, L1miss : 18142467, Branch : 4506845, D1miss : 862050, Wait : 0, Misc : 0, Total : 27845306
28412914000: system.cpu: -------------------------------------------------- 
<bad format>28412914000: system.cpu: Total Cycles :: 27300000 
28412914000: system.cpu: Tread 0 :: Base : 4347412, L1miss : 18209223, Branch : 4524132, D1miss : 865595, Wait : 0, Misc : 0, Total : 27946362
28524676500: system.cpu: -------------------------------------------------- 
<bad format>28524676500: system.cpu: Total Cycles :: 27400000 
28524676500: system.cpu: Tread 0 :: Base : 4361571, L1miss : 18274513, Branch : 4544280, D1miss : 868900, Wait : 0, Misc : 0, Total : 28049264
28643179000: system.cpu: -------------------------------------------------- 
<bad format>28643179000: system.cpu: Total Cycles :: 27500000 
28643179000: system.cpu: Tread 0 :: Base : 4374570, L1miss : 18340481, Branch : 4564143, D1miss : 871961, Wait : 0, Misc : 0, Total : 28151155
28751106500: system.cpu: -------------------------------------------------- 
<bad format>28751106500: system.cpu: Total Cycles :: 27600000 
28751106500: system.cpu: Tread 0 :: Base : 4387932, L1miss : 18404227, Branch : 4583383, D1miss : 876938, Wait : 0, Misc : 0, Total : 28252480
28873645500: system.cpu: -------------------------------------------------- 
<bad format>28873645500: system.cpu: Total Cycles :: 27700000 
28873645500: system.cpu: Tread 0 :: Base : 4400856, L1miss : 18469703, Branch : 4601836, D1miss : 879792, Wait : 0, Misc : 0, Total : 28352187
28995818500: system.cpu: -------------------------------------------------- 
<bad format>28995818500: system.cpu: Total Cycles :: 27800000 
28995818500: system.cpu: Tread 0 :: Base : 4413695, L1miss : 18535793, Branch : 4618647, D1miss : 882910, Wait : 0, Misc : 0, Total : 28451045
29120578500: system.cpu: -------------------------------------------------- 
<bad format>29120578500: system.cpu: Total Cycles :: 27900000 
29120578500: system.cpu: Tread 0 :: Base : 4426503, L1miss : 18603689, Branch : 4635037, D1miss : 887068, Wait : 0, Misc : 0, Total : 28552297
29244031500: system.cpu: RESET 0 0 0
29244031500: system.cpu: -------------------------------------------------- 
<bad format>29244031500: system.cpu: Total Cycles :: 28000000 
29244031500: system.cpu: Tread 0 :: Base : 4439655, L1miss : 18673478, Branch : 4651996, D1miss : 889973, Wait : 0, Misc : 0, Total : 28655102
29365447000: system.cpu: -------------------------------------------------- 
[...]
<bad format>1494241961500: system.cpu: Total Cycles :: 1240700000 
1494241961500: system.cpu: Tread 0 :: Base : 123809077, L1miss : 263786890, Branch : 189192584, D1miss : 12399594, Wait : 0, Misc : 0, Total : 589188145
1494395695500: system.cpu: -------------------------------------------------- 
<bad format>1494395695500: system.cpu: Total Cycles :: 1240800000 
1494395695500: system.cpu: Tread 0 :: Base : 123819169, L1miss : 263861091, Branch : 189203617, D1miss : 12400314, Wait : 0, Misc : 0, Total : 589284191
1494548790000: system.cpu: -------------------------------------------------- 
<bad format>1494548790000: system.cpu: Total Cycles :: 1240900000 
1494548790000: system.cpu: Tread 0 :: Base : 123829099, L1miss : 263931896, Branch : 189214352, D1miss : 12401413, Wait : 0, Misc : 0, Total : 589376760
1494702285000: system.cpu: RESET 0 0 0
1494702285000: system.cpu: -------------------------------------------------- 
<bad format>1494702285000: system.cpu: Total Cycles :: 1241000000 
1494702285000: system.cpu: Tread 0 :: Base : 123839304, L1miss : 264005226, Branch : 189225091, D1miss : 12402449, Wait : 0, Misc : 0, Total : 589472070
1494858463500: system.cpu: -------------------------------------------------- 
<bad format>1494858463500: system.cpu: Total Cycles :: 1241100000 
1494858463500: system.cpu: Tread 0 :: Base : 123847857, L1miss : 264075870, Branch : 189241442, D1miss : 12403275, Wait : 0, Misc : 0, Total : 589568444
1495034071000: system.cpu: -------------------------------------------------- 
<bad format>1495034071000: system.cpu: Total Cycles :: 1241200000 
1495034071000: system.cpu: Tread 0 :: Base : 123855944, L1miss : 264146324, Branch : 189253275, D1miss : 12404661, Wait : 0, Misc : 0, Total : 589660204
1495179883000: system.cpu: -------------------------------------------------- 
<bad format>1495179883000: system.cpu: Total Cycles :: 1241300000 
1495179883000: system.cpu: Tread 0 :: Base : 123866892, L1miss : 264219500, Branch : 189264623, D1miss : 12405156, Wait : 0, Misc : 0, Total : 589756171
1495347720000: system.cpu: -------------------------------------------------- 
<bad format>1495347720000: system.cpu: Total Cycles :: 1241400000 
1495347720000: system.cpu: Tread 0 :: Base : 123877342, L1miss : 264292857, Branch : 189277235, D1miss : 12405922, Wait : 0, Misc : 0, Total : 589853356
1495506710000: system.cpu: -------------------------------------------------- 
<bad format>1495506710000: system.cpu: Total Cycles :: 1241500000 
1495506710000: system.cpu: Tread 0 :: Base : 123887580, L1miss : 264364790, Branch : 189287742, D1miss : 12406499, Wait : 0, Misc : 0, Total : 589946611
1495668733500: system.cpu: -------------------------------------------------- 
<bad format>1495668733500: system.cpu: Total Cycles :: 1241600000 
1495668733500: system.cpu: Tread 0 :: Base : 123897226, L1miss : 264438447, Branch : 189299679, D1miss : 12407405, Wait : 0, Misc : 0, Total : 590042757
1495824578500: system.cpu: -------------------------------------------------- 
<bad format>1495824578500: system.cpu: Total Cycles :: 1241700000 
1495824578500: system.cpu: Tread 0 :: Base : 123907674, L1miss : 264509734, Branch : 189310257, D1miss : 12407831, Wait : 0, Misc : 0, Total : 590135496
1495989006000: system.cpu: -------------------------------------------------- 
<bad format>1495989006000: system.cpu: Total Cycles :: 1241800000 
1495989006000: system.cpu: Tread 0 :: Base : 123918354, L1miss : 264584581, Branch : 189322133, D1miss : 12408519, Wait : 0, Misc : 0, Total : 590233587
1496146794000: system.cpu: -------------------------------------------------- 
<bad format>1496146794000: system.cpu: Total Cycles :: 1241900000 
1496146794000: system.cpu: Tread 0 :: Base : 123928646, L1miss : 264654998, Branch : 189332970, D1miss : 12408941, Wait : 0, Misc : 0, Total : 590325555
1496307913500: system.cpu: RESET 0 0 0
1496307913500: system.cpu: -------------------------------------------------- 
<bad format>1496307913500: system.cpu: Total Cycles :: 1242000000 
1496307913500: system.cpu: Tread 0 :: Base : 123938199, L1miss : 264727594, Branch : 189345243, D1miss : 12409709, Wait : 0, Misc : 0, Total : 590420745
1496459980000: system.cpu: -------------------------------------------------- 
<bad format>1496459980000: system.cpu: Total Cycles :: 1242100000 
1496459980000: system.cpu: Tread 0 :: Base : 123948557, L1miss : 264798920, Branch : 189355679, D1miss : 12410856, Wait : 0, Misc : 0, Total : 590514012
1496627353500: system.cpu: -------------------------------------------------- 
<bad format>1496627353500: system.cpu: Total Cycles :: 1242200000 
1496627353500: system.cpu: Tread 0 :: Base : 123959199, L1miss : 264872450, Branch : 189367903, D1miss : 12411881, Wait : 0, Misc : 0, Total : 590611433
1496784806500: system.cpu: -------------------------------------------------- 
<bad format>1496784806500: system.cpu: Total Cycles :: 1242300000 
1496784806500: system.cpu: Tread 0 :: Base : 123969800, L1miss : 264944619, Branch : 189378020, D1miss : 12412403, Wait : 0, Misc : 0, Total : 590704842
1496943889000: system.cpu: -------------------------------------------------- 
<bad format>1496943889000: system.cpu: Total Cycles :: 1242400000 
1496943889000: system.cpu: Tread 0 :: Base : 123979169, L1miss : 265015475, Branch : 189389441, D1miss : 12412632, Wait : 0, Misc : 0, Total : 590796717
1497111347000: system.cpu: -------------------------------------------------- 
<bad format>1497111347000: system.cpu: Total Cycles :: 1242500000 
1497111347000: system.cpu: Tread 0 :: Base : 123987482, L1miss : 265086484, Branch : 189400542, D1miss : 12413373, Wait : 0, Misc : 0, Total : 590887881
1497274475500: system.cpu: -------------------------------------------------- 
<bad format>1497274475500: system.cpu: Total Cycles :: 1242600000 
1497274475500: system.cpu: Tread 0 :: Base : 123996359, L1miss : 265157616, Branch : 189414380, D1miss : 12414462, Wait : 0, Misc : 0, Total : 590982817
1497425420500: system.cpu: -------------------------------------------------- 
<bad format>1497425420500: system.cpu: Total Cycles :: 1242700000 
1497425420500: system.cpu: Tread 0 :: Base : 124007244, L1miss : 265230068, Branch : 189426237, D1miss : 12414794, Wait : 0, Misc : 0, Total : 591078343
1497586165000: system.cpu: -------------------------------------------------- 
<bad format>1497586165000: system.cpu: Total Cycles :: 1242800000 
1497586165000: system.cpu: Tread 0 :: Base : 124017604, L1miss : 265302479, Branch : 189438500, D1miss : 12415324, Wait : 0, Misc : 0, Total : 591173907
1497737313000: system.cpu: -------------------------------------------------- 
<bad format>1497737313000: system.cpu: Total Cycles :: 1242900000 
1497737313000: system.cpu: Tread 0 :: Base : 124027601, L1miss : 265375487, Branch : 189449015, D1miss : 12415722, Wait : 0, Misc : 0, Total : 591267825
1497892171000: system.cpu: RESET 0 0 0
1497892171000: system.cpu: -------------------------------------------------- 
<bad format>1497892171000: system.cpu: Total Cycles :: 1243000000 
1497892171000: system.cpu: Tread 0 :: Base : 124037580, L1miss : 265447166, Branch : 189462523, D1miss : 12416436, Wait : 0, Misc : 0, Total : 591363705
1498045567500: system.cpu: -------------------------------------------------- 
<bad format>1498045567500: system.cpu: Total Cycles :: 1243100000 
1498045567500: system.cpu: Tread 0 :: Base : 124048216, L1miss : 265519706, Branch : 189472508, D1miss : 12416765, Wait : 0, Misc : 0, Total : 591457195
1498209370500: system.cpu: -------------------------------------------------- 
<bad format>1498209370500: system.cpu: Total Cycles :: 1243200000 
1498209370500: system.cpu: Tread 0 :: Base : 124058642, L1miss : 265594346, Branch : 189482815, D1miss : 12416996, Wait : 0, Misc : 0, Total : 591552799
1498369020000: system.cpu: -------------------------------------------------- 
<bad format>1498369020000: system.cpu: Total Cycles :: 1243300000 
1498369020000: system.cpu: Tread 0 :: Base : 124069525, L1miss : 265669262, Branch : 189492185, D1miss : 12417260, Wait : 0, Misc : 0, Total : 591648232
1498525752000: system.cpu: -------------------------------------------------- 
<bad format>1498525752000: system.cpu: Total Cycles :: 1243400000 
1498525752000: system.cpu: Tread 0 :: Base : 124079380, L1miss : 265741386, Branch : 189504730, D1miss : 12417972, Wait : 0, Misc : 0, Total : 591743468
1498683384000: system.cpu: -------------------------------------------------- 
<bad format>1498683384000: system.cpu: Total Cycles :: 1243500000 
1498683384000: system.cpu: Tread 0 :: Base : 124089691, L1miss : 265814682, Branch : 189514573, D1miss : 12418382, Wait : 0, Misc : 0, Total : 591837328
1498839700000: system.cpu: -------------------------------------------------- 
<bad format>1498839700000: system.cpu: Total Cycles :: 1243600000 
1498839700000: system.cpu: Tread 0 :: Base : 124099917, L1miss : 265886350, Branch : 189527493, D1miss : 12419065, Wait : 0, Misc : 0, Total : 591932825
1498999049000: system.cpu: -------------------------------------------------- 
<bad format>1498999049000: system.cpu: Total Cycles :: 1243700000 
1498999049000: system.cpu: Tread 0 :: Base : 124110804, L1miss : 265961309, Branch : 189537939, D1miss : 12419665, Wait : 0, Misc : 0, Total : 592029717
1499067804500: system.cpu: -------------------------------------------------- 
<bad format>1499067804500: system.cpu: Total Cycles :: 1243800000 
1499067804500: system.cpu: Tread 0 :: Base : 124113070, L1miss : 265978865, Branch : 189541907, D1miss : 12419665, Wait : 0, Misc : 0, Total : 592053507
1499117804500: system.cpu: -------------------------------------------------- 
<bad format>1499117804500: system.cpu: Total Cycles :: 1243900000 
1499117804500: system.cpu: Tread 0 :: Base : 124113097, L1miss : 265980861, Branch : 189541907, D1miss : 12419665, Wait : 0, Misc : 0, Total : 592055530
1499283050500: system.cpu: RESET 0 0 0
1499283050500: system.cpu: -------------------------------------------------- 
<bad format>1499283050500: system.cpu: Total Cycles :: 1244000000 
1499283050500: system.cpu: Tread 0 :: Base : 124119781, L1miss : 266045447, Branch : 189550403, D1miss : 12420572, Wait : 0, Misc : 0, Total : 592136203
1499453093000: system.cpu: -------------------------------------------------- 
<bad format>1499453093000: system.cpu: Total Cycles :: 1244100000 
1499453093000: system.cpu: Tread 0 :: Base : 124128243, L1miss : 266120434, Branch : 189562733, D1miss : 12421047, Wait : 0, Misc : 0, Total : 592232457
1499620777500: system.cpu: -------------------------------------------------- 
<bad format>1499620777500: system.cpu: Total Cycles :: 1244200000 
1499620777500: system.cpu: Tread 0 :: Base : 124136288, L1miss : 266193851, Branch : 189572462, D1miss : 12421427, Wait : 0, Misc : 0, Total : 592324028
1499800596000: system.cpu: -------------------------------------------------- 
<bad format>1499800596000: system.cpu: Total Cycles :: 1244300000 
1499800596000: system.cpu: Tread 0 :: Base : 124144459, L1miss : 266269476, Branch : 189580556, D1miss : 12421846, Wait : 0, Misc : 0, Total : 592416337
1499984991000: system.cpu: -------------------------------------------------- 
<bad format>1499984991000: system.cpu: Total Cycles :: 1244400000 
1499984991000: system.cpu: Tread 0 :: Base : 124153062, L1miss : 266346071, Branch : 189589053, D1miss : 12422144, Wait : 0, Misc : 0, Total : 592510330
1500163221500: system.cpu: -------------------------------------------------- 
<bad format>1500163221500: system.cpu: Total Cycles :: 1244500000 
1500163221500: system.cpu: Tread 0 :: Base : 124161552, L1miss : 266420102, Branch : 189597268, D1miss : 12422837, Wait : 0, Misc : 0, Total : 592601759
1500336467000: system.cpu: -------------------------------------------------- 
<bad format>1500336467000: system.cpu: Total Cycles :: 1244600000 
1500336467000: system.cpu: Tread 0 :: Base : 124170980, L1miss : 266496298, Branch : 189605350, D1miss : 12423292, Wait : 0, Misc : 0, Total : 592695920
1500506983000: system.cpu: -------------------------------------------------- 
<bad format>1500506983000: system.cpu: Total Cycles :: 1244700000 
1500506983000: system.cpu: Tread 0 :: Base : 124179544, L1miss : 266572429, Branch : 189614070, D1miss : 12424811, Wait : 0, Misc : 0, Total : 592790854
1500676474000: system.cpu: -------------------------------------------------- 
<bad format>1500676474000: system.cpu: Total Cycles :: 1244800000 
1500676474000: system.cpu: Tread 0 :: Base : 124188100, L1miss : 266646450, Branch : 189623192, D1miss : 12426162, Wait : 0, Misc : 0, Total : 592883904
1500827301000: system.cpu: -------------------------------------------------- 
<bad format>1500827301000: system.cpu: Total Cycles :: 1244900000 
1500827301000: system.cpu: Tread 0 :: Base : 124195664, L1miss : 266708447, Branch : 189633276, D1miss : 12426948, Wait : 0, Misc : 0, Total : 592964335
1501012364500: system.cpu: RESET 0 0 0
1501012364500: system.cpu: -------------------------------------------------- 
<bad format>1501012364500: system.cpu: Total Cycles :: 1245000000 
1501012364500: system.cpu: Tread 0 :: Base : 124203168, L1miss : 266782619, Branch : 189641342, D1miss : 12427103, Wait : 0, Misc : 0, Total : 593054232
1501193303500: system.cpu: -------------------------------------------------- 
<bad format>1501193303500: system.cpu: Total Cycles :: 1245100000 
1501193303500: system.cpu: Tread 0 :: Base : 124211990, L1miss : 266857755, Branch : 189648722, D1miss : 12427514, Wait : 0, Misc : 0, Total : 593145981
1501366168500: system.cpu: -------------------------------------------------- 
<bad format>1501366168500: system.cpu: Total Cycles :: 1245200000 
1501366168500: system.cpu: Tread 0 :: Base : 124221219, L1miss : 266931549, Branch : 189657690, D1miss : 12428180, Wait : 0, Misc : 0, Total : 593238638
1501530337500: system.cpu: -------------------------------------------------- 
<bad format>1501530337500: system.cpu: Total Cycles :: 1245300000 
1501530337500: system.cpu: Tread 0 :: Base : 124230398, L1miss : 267005132, Branch : 189665792, D1miss : 12428767, Wait : 0, Misc : 0, Total : 593330089
1501705639000: system.cpu: -------------------------------------------------- 
<bad format>1501705639000: system.cpu: Total Cycles :: 1245400000 
1501705639000: system.cpu: Tread 0 :: Base : 124239046, L1miss : 267081336, Branch : 189674440, D1miss : 12429349, Wait : 0, Misc : 0, Total : 593424171
1501883242000: system.cpu: -------------------------------------------------- 
<bad format>1501883242000: system.cpu: Total Cycles :: 1245500000 
1501883242000: system.cpu: Tread 0 :: Base : 124247416, L1miss : 267153905, Branch : 189682767, D1miss : 12429901, Wait : 0, Misc : 0, Total : 593513989
1502036169000: system.cpu: -------------------------------------------------- 
<bad format>1502036169000: system.cpu: Total Cycles :: 1245600000 
1502036169000: system.cpu: Tread 0 :: Base : 124255267, L1miss : 267219027, Branch : 189695695, D1miss : 12430589, Wait : 0, Misc : 0, Total : 593600578
1502222420500: system.cpu: -------------------------------------------------- 
<bad format>1502222420500: system.cpu: Total Cycles :: 1245700000 
1502222420500: system.cpu: Tread 0 :: Base : 124263692, L1miss : 267294766, Branch : 189703355, D1miss : 12430770, Wait : 0, Misc : 0, Total : 593692583
1502398154000: system.cpu: -------------------------------------------------- 
<bad format>1502398154000: system.cpu: Total Cycles :: 1245800000 
1502398154000: system.cpu: Tread 0 :: Base : 124272552, L1miss : 267367464, Branch : 189711448, D1miss : 12431705, Wait : 0, Misc : 0, Total : 593783169
1502546144000: system.cpu: -------------------------------------------------- 
<bad format>1502546144000: system.cpu: Total Cycles :: 1245900000 
1502546144000: system.cpu: Tread 0 :: Base : 124282230, L1miss : 267441210, Branch : 189720331, D1miss : 12431778, Wait : 0, Misc : 0, Total : 593875549
1502713927500: system.cpu: RESET 0 0 0
1502713927500: system.cpu: -------------------------------------------------- 
<bad format>1502713927500: system.cpu: Total Cycles :: 1246000000 
1502713927500: system.cpu: Tread 0 :: Base : 124290730, L1miss : 267515598, Branch : 189729704, D1miss : 12431934, Wait : 0, Misc : 0, Total : 593967966
1502888234500: system.cpu: -------------------------------------------------- 
<bad format>1502888234500: system.cpu: Total Cycles :: 1246100000 
1502888234500: system.cpu: Tread 0 :: Base : 124299909, L1miss : 267591377, Branch : 189739095, D1miss : 12432156, Wait : 0, Misc : 0, Total : 594062537
1503044488000: system.cpu: -------------------------------------------------- 
<bad format>1503044488000: system.cpu: Total Cycles :: 1246200000 
1503044488000: system.cpu: Tread 0 :: Base : 124309219, L1miss : 267664398, Branch : 189750211, D1miss : 12432660, Wait : 0, Misc : 0, Total : 594156488
1503191385000: system.cpu: -------------------------------------------------- 
<bad format>1503191385000: system.cpu: Total Cycles :: 1246300000 
1503191385000: system.cpu: Tread 0 :: Base : 124319161, L1miss : 267733896, Branch : 189766978, D1miss : 12434104, Wait : 0, Misc : 0, Total : 594254139
1503351669000: system.cpu: -------------------------------------------------- 
<bad format>1503351669000: system.cpu: Total Cycles :: 1246400000 
1503351669000: system.cpu: Tread 0 :: Base : 124329489, L1miss : 267808395, Branch : 189779939, D1miss : 12434675, Wait : 0, Misc : 0, Total : 594352498
1503499918500: system.cpu: -------------------------------------------------- 
<bad format>1503499918500: system.cpu: Total Cycles :: 1246500000 
1503499918500: system.cpu: Tread 0 :: Base : 124339348, L1miss : 267880069, Branch : 189793696, D1miss : 12435710, Wait : 0, Misc : 0, Total : 594448823
1503651038500: system.cpu: -------------------------------------------------- 
<bad format>1503651038500: system.cpu: Total Cycles :: 1246600000 
1503651038500: system.cpu: Tread 0 :: Base : 124349614, L1miss : 267952210, Branch : 189804198, D1miss : 12436535, Wait : 0, Misc : 0, Total : 594542557
1503809747500: system.cpu: -------------------------------------------------- 
<bad format>1503809747500: system.cpu: Total Cycles :: 1246700000 
1503809747500: system.cpu: Tread 0 :: Base : 124360177, L1miss : 268026984, Branch : 189816223, D1miss : 12437257, Wait : 0, Misc : 0, Total : 594640641
1503962124500: system.cpu: -------------------------------------------------- 
<bad format>1503962124500: system.cpu: Total Cycles :: 1246800000 
1503962124500: system.cpu: Tread 0 :: Base : 124369946, L1miss : 268099797, Branch : 189829235, D1miss : 12438075, Wait : 0, Misc : 0, Total : 594737053
1504110200000: system.cpu: -------------------------------------------------- 
<bad format>1504110200000: system.cpu: Total Cycles :: 1246900000 
1504110200000: system.cpu: Tread 0 :: Base : 124380756, L1miss : 268170646, Branch : 189839131, D1miss : 12438795, Wait : 0, Misc : 0, Total : 594829328
1504271546000: system.cpu: RESET 0 0 0
1504271546000: system.cpu: -------------------------------------------------- 
<bad format>1504271546000: system.cpu: Total Cycles :: 1247000000 
1504271546000: system.cpu: Tread 0 :: Base : 124391186, L1miss : 268242757, Branch : 189849932, D1miss : 12439520, Wait : 0, Misc : 0, Total : 594923395
1504427337500: system.cpu: -------------------------------------------------- 
<bad format>1504427337500: system.cpu: Total Cycles :: 1247100000 
1504427337500: system.cpu: Tread 0 :: Base : 124400095, L1miss : 268316061, Branch : 189862131, D1miss : 12440076, Wait : 0, Misc : 0, Total : 595018363
1504594439500: system.cpu: -------------------------------------------------- 
<bad format>1504594439500: system.cpu: Total Cycles :: 1247200000 
1504594439500: system.cpu: Tread 0 :: Base : 124409502, L1miss : 268391210, Branch : 189874835, D1miss : 12440708, Wait : 0, Misc : 0, Total : 595116255
