gem5 Simulator System.  http://gem5.org
gem5 is copyrighted software; use the --copyright option for details.

gem5 compiled Dec 21 2017 13:35:48
gem5 started Dec 21 2017 17:40:19
gem5 executing on worker05, pid 230940
command line: ./build/ALPHA/gem5.debug --debug-flag=Progress configs/example/se.py -n 1 --smt --cpu-type=DerivO3CPU -c ../../spec_alpha/bzip_test/t1/bzip2_base.alpha --options=../../spec_alpha/bzip_test/t1/chicken.jpg --caches --l1d_size=32kB --l1i_size=32kB --l2_size=256kB --l3_size=8MB --mem-size=8GB

Global frequency set at 1000000000000 ticks per second
**** REAL SIMULATION ****
spec_init
60408500: system.cpu: -------------------------------------------------- 
<bad format>60408500: system.cpu: Total Cycles :: 100000 
60408500: system.cpu: Tread 0 :: Base : 3508, L1miss : 39383, Branch : 3201, D1miss : 11471, Wait : 0, Misc : 0, Total : 57563
110408500: system.cpu: -------------------------------------------------- 
<bad format>110408500: system.cpu: Total Cycles :: 200000 
110408500: system.cpu: Tread 0 :: Base : 6347, L1miss : 67506, Branch : 3201, D1miss : 43924, Wait : 0, Misc : 0, Total : 120978
160408500: system.cpu: -------------------------------------------------- 
<bad format>160408500: system.cpu: Total Cycles :: 300000 
160408500: system.cpu: Tread 0 :: Base : 9381, L1miss : 97207, Branch : 3201, D1miss : 69705, Wait : 0, Misc : 0, Total : 179494
210408500: system.cpu: -------------------------------------------------- 
<bad format>210408500: system.cpu: Total Cycles :: 400000 
210408500: system.cpu: Tread 0 :: Base : 12704, L1miss : 132668, Branch : 3201, D1miss : 84039, Wait : 0, Misc : 0, Total : 232612
260408500: system.cpu: -------------------------------------------------- 
<bad format>260408500: system.cpu: Total Cycles :: 500000 
260408500: system.cpu: Tread 0 :: Base : 15991, L1miss : 167217, Branch : 3201, D1miss : 98787, Wait : 0, Misc : 0, Total : 285196
310408500: system.cpu: -------------------------------------------------- 
<bad format>310408500: system.cpu: Total Cycles :: 600000 
310408500: system.cpu: Tread 0 :: Base : 19303, L1miss : 203014, Branch : 3201, D1miss : 113066, Wait : 0, Misc : 0, Total : 338584
360408500: system.cpu: -------------------------------------------------- 
<bad format>360408500: system.cpu: Total Cycles :: 700000 
360408500: system.cpu: Tread 0 :: Base : 22496, L1miss : 237429, Branch : 3201, D1miss : 130649, Wait : 0, Misc : 0, Total : 393775
410408500: system.cpu: -------------------------------------------------- 
<bad format>410408500: system.cpu: Total Cycles :: 800000 
410408500: system.cpu: Tread 0 :: Base : 25535, L1miss : 268917, Branch : 3201, D1miss : 154020, Wait : 0, Misc : 0, Total : 451673
460408500: system.cpu: -------------------------------------------------- 
<bad format>460408500: system.cpu: Total Cycles :: 900000 
460408500: system.cpu: Tread 0 :: Base : 28817, L1miss : 303725, Branch : 3201, D1miss : 169294, Wait : 0, Misc : 0, Total : 505037
510408500: system.cpu: RESET 0 0 0
510408500: system.cpu: -------------------------------------------------- 
<bad format>510408500: system.cpu: Total Cycles :: 1000000 
510408500: system.cpu: Tread 0 :: Base : 32136, L1miss : 338843, Branch : 3201, D1miss : 183682, Wait : 0, Misc : 0, Total : 557862
560408500: system.cpu: -------------------------------------------------- 
<bad format>560408500: system.cpu: Total Cycles :: 1100000 
560408500: system.cpu: Tread 0 :: Base : 35467, L1miss : 374160, Branch : 3201, D1miss : 198486, Wait : 0, Misc : 0, Total : 611314
610408500: system.cpu: -------------------------------------------------- 
<bad format>610408500: system.cpu: Total Cycles :: 1200000 
610408500: system.cpu: Tread 0 :: Base : 38617, L1miss : 408394, Branch : 3201, D1miss : 215544, Wait : 0, Misc : 0, Total : 665756
660408500: system.cpu: -------------------------------------------------- 
<bad format>660408500: system.cpu: Total Cycles :: 1300000 
660408500: system.cpu: Tread 0 :: Base : 41865, L1miss : 444639, Branch : 3201, D1miss : 229546, Wait : 0, Misc : 0, Total : 719251
710408500: system.cpu: -------------------------------------------------- 
<bad format>710408500: system.cpu: Total Cycles :: 1400000 
710408500: system.cpu: Tread 0 :: Base : 44889, L1miss : 476321, Branch : 3201, D1miss : 252752, Wait : 0, Misc : 0, Total : 777163
760408500: system.cpu: -------------------------------------------------- 
<bad format>760408500: system.cpu: Total Cycles :: 1500000 
760408500: system.cpu: Tread 0 :: Base : 48156, L1miss : 511180, Branch : 3201, D1miss : 267556, Wait : 0, Misc : 0, Total : 830093
810408500: system.cpu: -------------------------------------------------- 
<bad format>810408500: system.cpu: Total Cycles :: 1600000 
810408500: system.cpu: Tread 0 :: Base : 51495, L1miss : 546960, Branch : 3201, D1miss : 282414, Wait : 0, Misc : 0, Total : 884070
860408500: system.cpu: -------------------------------------------------- 
<bad format>860408500: system.cpu: Total Cycles :: 1700000 
860408500: system.cpu: Tread 0 :: Base : 54757, L1miss : 581006, Branch : 3201, D1miss : 297218, Wait : 0, Misc : 0, Total : 936182
910408500: system.cpu: -------------------------------------------------- 
<bad format>910408500: system.cpu: Total Cycles :: 1800000 
910408500: system.cpu: Tread 0 :: Base : 57985, L1miss : 615571, Branch : 3201, D1miss : 314304, Wait : 0, Misc : 0, Total : 991061
960408500: system.cpu: -------------------------------------------------- 
<bad format>960408500: system.cpu: Total Cycles :: 1900000 
960408500: system.cpu: Tread 0 :: Base : 61187, L1miss : 651942, Branch : 3201, D1miss : 328361, Wait : 0, Misc : 0, Total : 1044691
1010408500: system.cpu: RESET 0 0 0
1010408500: system.cpu: -------------------------------------------------- 
<bad format>1010408500: system.cpu: Total Cycles :: 2000000 
1010408500: system.cpu: Tread 0 :: Base : 64228, L1miss : 683522, Branch : 3201, D1miss : 350294, Wait : 0, Misc : 0, Total : 1101245
1060408500: system.cpu: -------------------------------------------------- 
<bad format>1060408500: system.cpu: Total Cycles :: 2100000 
1060408500: system.cpu: Tread 0 :: Base : 67510, L1miss : 718033, Branch : 3201, D1miss : 366287, Wait : 0, Misc : 0, Total : 1155031
1110408500: system.cpu: -------------------------------------------------- 
<bad format>1110408500: system.cpu: Total Cycles :: 2200000 
1110408500: system.cpu: Tread 0 :: Base : 70821, L1miss : 752673, Branch : 3201, D1miss : 381146, Wait : 0, Misc : 0, Total : 1207841
1160408500: system.cpu: -------------------------------------------------- 
<bad format>1160408500: system.cpu: Total Cycles :: 2300000 
1160408500: system.cpu: Tread 0 :: Base : 74128, L1miss : 788024, Branch : 3201, D1miss : 395369, Wait : 0, Misc : 0, Total : 1260722
1210408500: system.cpu: -------------------------------------------------- 
<bad format>1210408500: system.cpu: Total Cycles :: 2400000 
1210408500: system.cpu: Tread 0 :: Base : 77310, L1miss : 821836, Branch : 3201, D1miss : 413091, Wait : 0, Misc : 0, Total : 1315438
1260408500: system.cpu: -------------------------------------------------- 
<bad format>1260408500: system.cpu: Total Cycles :: 2500000 
1260408500: system.cpu: Tread 0 :: Base : 80555, L1miss : 857637, Branch : 3201, D1miss : 427121, Wait : 0, Misc : 0, Total : 1368514
1310408500: system.cpu: -------------------------------------------------- 
<bad format>1310408500: system.cpu: Total Cycles :: 2600000 
1310408500: system.cpu: Tread 0 :: Base : 83716, L1miss : 890875, Branch : 3201, D1miss : 445056, Wait : 0, Misc : 0, Total : 1422848
1360408500: system.cpu: -------------------------------------------------- 
<bad format>1360408500: system.cpu: Total Cycles :: 2700000 
1360408500: system.cpu: Tread 0 :: Base : 86865, L1miss : 923496, Branch : 3201, D1miss : 465129, Wait : 0, Misc : 0, Total : 1478691
1410408500: system.cpu: -------------------------------------------------- 
<bad format>1410408500: system.cpu: Total Cycles :: 2800000 
1410408500: system.cpu: Tread 0 :: Base : 90148, L1miss : 958187, Branch : 3201, D1miss : 479823, Wait : 0, Misc : 0, Total : 1531359
1460408500: system.cpu: -------------------------------------------------- 
<bad format>1460408500: system.cpu: Total Cycles :: 2900000 
1460408500: system.cpu: Tread 0 :: Base : 93459, L1miss : 994169, Branch : 3201, D1miss : 494101, Wait : 0, Misc : 0, Total : 1584930
1510408500: system.cpu: RESET 0 0 0
1510408500: system.cpu: -------------------------------------------------- 
<bad format>1510408500: system.cpu: Total Cycles :: 3000000 
1510408500: system.cpu: Tread 0 :: Base : 96798, L1miss : 1028899, Branch : 3201, D1miss : 509015, Wait : 0, Misc : 0, Total : 1637913
1560408500: system.cpu: -------------------------------------------------- 
<bad format>1560408500: system.cpu: Total Cycles :: 3100000 
1560408500: system.cpu: Tread 0 :: Base : 99926, L1miss : 1063249, Branch : 3201, D1miss : 525908, Wait : 0, Misc : 0, Total : 1692284
1610408500: system.cpu: -------------------------------------------------- 
<bad format>1610408500: system.cpu: Total Cycles :: 3200000 
1610408500: system.cpu: Tread 0 :: Base : 103171, L1miss : 1099787, Branch : 3201, D1miss : 539938, Wait : 0, Misc : 0, Total : 1746097
1660408500: system.cpu: -------------------------------------------------- 
<bad format>1660408500: system.cpu: Total Cycles :: 3300000 
1660408500: system.cpu: Tread 0 :: Base : 106228, L1miss : 1131211, Branch : 3201, D1miss : 563281, Wait : 0, Misc : 0, Total : 1803921
1710408500: system.cpu: -------------------------------------------------- 
<bad format>1710408500: system.cpu: Total Cycles :: 3400000 
1710408500: system.cpu: Tread 0 :: Base : 109441, L1miss : 1168341, Branch : 3572, D1miss : 577150, Wait : 0, Misc : 0, Total : 1858504
1760408500: system.cpu: -------------------------------------------------- 
<bad format>1760408500: system.cpu: Total Cycles :: 3500000 
1760408500: system.cpu: Tread 0 :: Base : 112328, L1miss : 1206289, Branch : 3572, D1miss : 589554, Wait : 0, Misc : 0, Total : 1911743
1810408500: system.cpu: -------------------------------------------------- 
<bad format>1810408500: system.cpu: Total Cycles :: 3600000 
1810408500: system.cpu: Tread 0 :: Base : 115209, L1miss : 1243823, Branch : 3572, D1miss : 601931, Wait : 0, Misc : 0, Total : 1964535
1860408500: system.cpu: -------------------------------------------------- 
<bad format>1860408500: system.cpu: Total Cycles :: 3700000 
1860408500: system.cpu: Tread 0 :: Base : 118061, L1miss : 1279962, Branch : 3572, D1miss : 614363, Wait : 0, Misc : 0, Total : 2015958
1910408500: system.cpu: -------------------------------------------------- 
<bad format>1910408500: system.cpu: Total Cycles :: 3800000 
1910408500: system.cpu: Tread 0 :: Base : 120964, L1miss : 1318013, Branch : 3572, D1miss : 626767, Wait : 0, Misc : 0, Total : 2069316
1960408500: system.cpu: -------------------------------------------------- 
<bad format>1960408500: system.cpu: Total Cycles :: 3900000 
1960408500: system.cpu: Tread 0 :: Base : 123834, L1miss : 1354281, Branch : 3572, D1miss : 639199, Wait : 0, Misc : 0, Total : 2120886
2010408500: system.cpu: RESET 0 0 0
2010408500: system.cpu: -------------------------------------------------- 
<bad format>2010408500: system.cpu: Total Cycles :: 4000000 
2010408500: system.cpu: Tread 0 :: Base : 126701, L1miss : 1390644, Branch : 3572, D1miss : 651603, Wait : 0, Misc : 0, Total : 2172520
2060408500: system.cpu: -------------------------------------------------- 
<bad format>2060408500: system.cpu: Total Cycles :: 4100000 
2060408500: system.cpu: Tread 0 :: Base : 129645, L1miss : 1428283, Branch : 3572, D1miss : 664090, Wait : 0, Misc : 0, Total : 2225590
2110408500: system.cpu: -------------------------------------------------- 
<bad format>2110408500: system.cpu: Total Cycles :: 4200000 
2110408500: system.cpu: Tread 0 :: Base : 132497, L1miss : 1465909, Branch : 3572, D1miss : 676494, Wait : 0, Misc : 0, Total : 2278472
2160408500: system.cpu: -------------------------------------------------- 
<bad format>2160408500: system.cpu: Total Cycles :: 4300000 
2160408500: system.cpu: Tread 0 :: Base : 135376, L1miss : 1503488, Branch : 3572, D1miss : 688926, Wait : 0, Misc : 0, Total : 2331362
2210408500: system.cpu: -------------------------------------------------- 
<bad format>2210408500: system.cpu: Total Cycles :: 4400000 
2210408500: system.cpu: Tread 0 :: Base : 138268, L1miss : 1541462, Branch : 3572, D1miss : 701357, Wait : 0, Misc : 0, Total : 2384659
2260408500: system.cpu: -------------------------------------------------- 
<bad format>2260408500: system.cpu: Total Cycles :: 4500000 
2260408500: system.cpu: Tread 0 :: Base : 141120, L1miss : 1579549, Branch : 3572, D1miss : 713762, Wait : 0, Misc : 0, Total : 2438003
2310408500: system.cpu: -------------------------------------------------- 
<bad format>2310408500: system.cpu: Total Cycles :: 4600000 
2310408500: system.cpu: Tread 0 :: Base : 144031, L1miss : 1617531, Branch : 3572, D1miss : 726193, Wait : 0, Misc : 0, Total : 2491327
2360408500: system.cpu: -------------------------------------------------- 
<bad format>2360408500: system.cpu: Total Cycles :: 4700000 
2360408500: system.cpu: Tread 0 :: Base : 146900, L1miss : 1655230, Branch : 3572, D1miss : 738598, Wait : 0, Misc : 0, Total : 2544300
2410408500: system.cpu: -------------------------------------------------- 
<bad format>2410408500: system.cpu: Total Cycles :: 4800000 
2410408500: system.cpu: Tread 0 :: Base : 149760, L1miss : 1692277, Branch : 3572, D1miss : 750974, Wait : 0, Misc : 0, Total : 2596583
2460408500: system.cpu: -------------------------------------------------- 
<bad format>2460408500: system.cpu: Total Cycles :: 4900000 
2460408500: system.cpu: Tread 0 :: Base : 152670, L1miss : 1729259, Branch : 3572, D1miss : 763484, Wait : 0, Misc : 0, Total : 2648985
2510408500: system.cpu: RESET 0 0 0
2510408500: system.cpu: -------------------------------------------------- 
<bad format>2510408500: system.cpu: Total Cycles :: 5000000 
2510408500: system.cpu: Tread 0 :: Base : 155533, L1miss : 1766278, Branch : 3572, D1miss : 775810, Wait : 0, Misc : 0, Total : 2701193
2560408500: system.cpu: -------------------------------------------------- 
<bad format>2560408500: system.cpu: Total Cycles :: 5100000 
2560408500: system.cpu: Tread 0 :: Base : 158469, L1miss : 1804951, Branch : 3572, D1miss : 788325, Wait : 0, Misc : 0, Total : 2755317
2610408500: system.cpu: -------------------------------------------------- 
<bad format>2610408500: system.cpu: Total Cycles :: 5200000 
2610408500: system.cpu: Tread 0 :: Base : 161318, L1miss : 1841934, Branch : 3572, D1miss : 800646, Wait : 0, Misc : 0, Total : 2807470
2660408500: system.cpu: -------------------------------------------------- 
<bad format>2660408500: system.cpu: Total Cycles :: 5300000 
2660408500: system.cpu: Tread 0 :: Base : 164205, L1miss : 1878552, Branch : 3572, D1miss : 813133, Wait : 0, Misc : 0, Total : 2859462
2710408500: system.cpu: -------------------------------------------------- 
<bad format>2710408500: system.cpu: Total Cycles :: 5400000 
2710408500: system.cpu: Tread 0 :: Base : 167092, L1miss : 1916052, Branch : 3572, D1miss : 825541, Wait : 0, Misc : 0, Total : 2912257
2760408500: system.cpu: -------------------------------------------------- 
<bad format>2760408500: system.cpu: Total Cycles :: 5500000 
2760408500: system.cpu: Tread 0 :: Base : 169950, L1miss : 1953306, Branch : 3572, D1miss : 837969, Wait : 0, Misc : 0, Total : 2964797
2810408500: system.cpu: -------------------------------------------------- 
<bad format>2810408500: system.cpu: Total Cycles :: 5600000 
2810408500: system.cpu: Tread 0 :: Base : 172861, L1miss : 1990436, Branch : 3572, D1miss : 850428, Wait : 0, Misc : 0, Total : 3017297
2860408500: system.cpu: -------------------------------------------------- 
<bad format>2860408500: system.cpu: Total Cycles :: 5700000 
2860408500: system.cpu: Tread 0 :: Base : 175738, L1miss : 2027219, Branch : 3572, D1miss : 862805, Wait : 0, Misc : 0, Total : 3069334
2910408500: system.cpu: -------------------------------------------------- 
<bad format>2910408500: system.cpu: Total Cycles :: 5800000 
2910408500: system.cpu: Tread 0 :: Base : 178632, L1miss : 2063382, Branch : 3572, D1miss : 875320, Wait : 0, Misc : 0, Total : 3120906
2960408500: system.cpu: -------------------------------------------------- 
<bad format>2960408500: system.cpu: Total Cycles :: 5900000 
2960408500: system.cpu: Tread 0 :: Base : 181493, L1miss : 2100263, Branch : 3572, D1miss : 887659, Wait : 0, Misc : 0, Total : 3172987
3010408500: system.cpu: RESET 0 0 0
3010408500: system.cpu: -------------------------------------------------- 
<bad format>3010408500: system.cpu: Total Cycles :: 6000000 
3010408500: system.cpu: Tread 0 :: Base : 184357, L1miss : 2137238, Branch : 3572, D1miss : 900100, Wait : 0, Misc : 0, Total : 3225267
3060408500: system.cpu: -------------------------------------------------- 
<bad format>3060408500: system.cpu: Total Cycles :: 6100000 
3060408500: system.cpu: Tread 0 :: Base : 187243, L1miss : 2174129, Branch : 3572, D1miss : 912513, Wait : 0, Misc : 0, Total : 3277457
3110408500: system.cpu: -------------------------------------------------- 
<bad format>3110408500: system.cpu: Total Cycles :: 6200000 
3110408500: system.cpu: Tread 0 :: Base : 190136, L1miss : 2212270, Branch : 3572, D1miss : 924853, Wait : 0, Misc : 0, Total : 3330831
3160408500: system.cpu: -------------------------------------------------- 
<bad format>3160408500: system.cpu: Total Cycles :: 6300000 
3160408500: system.cpu: Tread 0 :: Base : 192995, L1miss : 2249238, Branch : 3572, D1miss : 937368, Wait : 0, Misc : 0, Total : 3383173
3210408500: system.cpu: -------------------------------------------------- 
<bad format>3210408500: system.cpu: Total Cycles :: 6400000 
3210408500: system.cpu: Tread 0 :: Base : 195908, L1miss : 2287677, Branch : 3572, D1miss : 949745, Wait : 0, Misc : 0, Total : 3436902
3260408500: system.cpu: -------------------------------------------------- 
<bad format>3260408500: system.cpu: Total Cycles :: 6500000 
3260408500: system.cpu: Tread 0 :: Base : 198779, L1miss : 2325056, Branch : 3572, D1miss : 962259, Wait : 0, Misc : 0, Total : 3489666
3310408500: system.cpu: -------------------------------------------------- 
<bad format>3310408500: system.cpu: Total Cycles :: 6600000 
3310408500: system.cpu: Tread 0 :: Base : 201628, L1miss : 2362487, Branch : 3572, D1miss : 974581, Wait : 0, Misc : 0, Total : 3542268
3360408500: system.cpu: -------------------------------------------------- 
<bad format>3360408500: system.cpu: Total Cycles :: 6700000 
3360408500: system.cpu: Tread 0 :: Base : 204540, L1miss : 2401962, Branch : 3572, D1miss : 987082, Wait : 0, Misc : 0, Total : 3597156
3410408500: system.cpu: -------------------------------------------------- 
<bad format>3410408500: system.cpu: Total Cycles :: 6800000 
3410408500: system.cpu: Tread 0 :: Base : 207409, L1miss : 2438550, Branch : 3572, D1miss : 999527, Wait : 0, Misc : 0, Total : 3649058
3460408500: system.cpu: -------------------------------------------------- 
<bad format>3460408500: system.cpu: Total Cycles :: 6900000 
3460408500: system.cpu: Tread 0 :: Base : 210288, L1miss : 2476046, Branch : 3572, D1miss : 1011848, Wait : 0, Misc : 0, Total : 3701754
3510408500: system.cpu: RESET 0 0 0
3510408500: system.cpu: -------------------------------------------------- 
<bad format>3510408500: system.cpu: Total Cycles :: 7000000 
3510408500: system.cpu: Tread 0 :: Base : 213184, L1miss : 2513715, Branch : 3572, D1miss : 1024387, Wait : 0, Misc : 0, Total : 3754858
3560408500: system.cpu: -------------------------------------------------- 
<bad format>3560408500: system.cpu: Total Cycles :: 7100000 
3560408500: system.cpu: Tread 0 :: Base : 216230, L1miss : 2552847, Branch : 3983, D1miss : 1037475, Wait : 0, Misc : 0, Total : 3810535
3610408500: system.cpu: -------------------------------------------------- 
<bad format>3610408500: system.cpu: Total Cycles :: 7200000 
3610408500: system.cpu: Tread 0 :: Base : 219499, L1miss : 2587596, Branch : 3983, D1miss : 1051752, Wait : 0, Misc : 0, Total : 3862830
3660408500: system.cpu: -------------------------------------------------- 
<bad format>3660408500: system.cpu: Total Cycles :: 7300000 
3660408500: system.cpu: Tread 0 :: Base : 222746, L1miss : 2622187, Branch : 3983, D1miss : 1065969, Wait : 0, Misc : 0, Total : 3914885
3710408500: system.cpu: -------------------------------------------------- 
<bad format>3710408500: system.cpu: Total Cycles :: 7400000 
3710408500: system.cpu: Tread 0 :: Base : 225820, L1miss : 2654796, Branch : 3983, D1miss : 1087602, Wait : 0, Misc : 0, Total : 3972201
3760408500: system.cpu: -------------------------------------------------- 
<bad format>3760408500: system.cpu: Total Cycles :: 7500000 
3760408500: system.cpu: Tread 0 :: Base : 228670, L1miss : 2682487, Branch : 3983, D1miss : 1120185, Wait : 0, Misc : 0, Total : 4035325
3810408500: system.cpu: -------------------------------------------------- 
<bad format>3810408500: system.cpu: Total Cycles :: 7600000 
3810408500: system.cpu: Tread 0 :: Base : 231669, L1miss : 2714167, Branch : 3983, D1miss : 1143426, Wait : 0, Misc : 0, Total : 4093245
3860408500: system.cpu: -------------------------------------------------- 
<bad format>3860408500: system.cpu: Total Cycles :: 7700000 
3860408500: system.cpu: Tread 0 :: Base : 234912, L1miss : 2750043, Branch : 3983, D1miss : 1157374, Wait : 0, Misc : 0, Total : 4146312
3910408500: system.cpu: -------------------------------------------------- 
<bad format>3910408500: system.cpu: Total Cycles :: 7800000 
3910408500: system.cpu: Tread 0 :: Base : 238107, L1miss : 2785767, Branch : 3983, D1miss : 1171212, Wait : 0, Misc : 0, Total : 4199069
3960408500: system.cpu: -------------------------------------------------- 
<bad format>3960408500: system.cpu: Total Cycles :: 7900000 
3960408500: system.cpu: Tread 0 :: Base : 241328, L1miss : 2821867, Branch : 3983, D1miss : 1185132, Wait : 0, Misc : 0, Total : 4252310
4010408500: system.cpu: RESET 0 0 0
4010408500: system.cpu: -------------------------------------------------- 
<bad format>4010408500: system.cpu: Total Cycles :: 8000000 
4010408500: system.cpu: Tread 0 :: Base : 244573, L1miss : 2857783, Branch : 3983, D1miss : 1199025, Wait : 0, Misc : 0, Total : 4305364
4060408500: system.cpu: -------------------------------------------------- 
<bad format>4060408500: system.cpu: Total Cycles :: 8100000 
4060408500: system.cpu: Tread 0 :: Base : 247805, L1miss : 2893958, Branch : 3983, D1miss : 1212917, Wait : 0, Misc : 0, Total : 4358663
4110408500: system.cpu: -------------------------------------------------- 
<bad format>4110408500: system.cpu: Total Cycles :: 8200000 
4110408500: system.cpu: Tread 0 :: Base : 251050, L1miss : 2929800, Branch : 3983, D1miss : 1226920, Wait : 0, Misc : 0, Total : 4411753
4160408500: system.cpu: -------------------------------------------------- 
<bad format>4160408500: system.cpu: Total Cycles :: 8300000 
4160408500: system.cpu: Tread 0 :: Base : 254285, L1miss : 2966126, Branch : 3983, D1miss : 1240813, Wait : 0, Misc : 0, Total : 4465207
4210408500: system.cpu: -------------------------------------------------- 
<bad format>4210408500: system.cpu: Total Cycles :: 8400000 
4210408500: system.cpu: Tread 0 :: Base : 257517, L1miss : 3001808, Branch : 3983, D1miss : 1254761, Wait : 0, Misc : 0, Total : 4518069
4260408500: system.cpu: -------------------------------------------------- 
<bad format>4260408500: system.cpu: Total Cycles :: 8500000 
4260408500: system.cpu: Tread 0 :: Base : 260692, L1miss : 3036948, Branch : 3983, D1miss : 1268599, Wait : 0, Misc : 0, Total : 4570222
4310408500: system.cpu: -------------------------------------------------- 
<bad format>4310408500: system.cpu: Total Cycles :: 8600000 
4310408500: system.cpu: Tread 0 :: Base : 263953, L1miss : 3073845, Branch : 3983, D1miss : 1282519, Wait : 0, Misc : 0, Total : 4624300
4360408500: system.cpu: -------------------------------------------------- 
<bad format>4360408500: system.cpu: Total Cycles :: 8700000 
4360408500: system.cpu: Tread 0 :: Base : 267196, L1miss : 3109759, Branch : 3983, D1miss : 1296466, Wait : 0, Misc : 0, Total : 4677404
4410408500: system.cpu: -------------------------------------------------- 
<bad format>4410408500: system.cpu: Total Cycles :: 8800000 
4410408500: system.cpu: Tread 0 :: Base : 270401, L1miss : 3145073, Branch : 3983, D1miss : 1310304, Wait : 0, Misc : 0, Total : 4729761
4460408500: system.cpu: -------------------------------------------------- 
<bad format>4460408500: system.cpu: Total Cycles :: 8900000 
4460408500: system.cpu: Tread 0 :: Base : 273646, L1miss : 3181467, Branch : 3983, D1miss : 1324307, Wait : 0, Misc : 0, Total : 4783403
4510408500: system.cpu: RESET 0 0 0
4510408500: system.cpu: -------------------------------------------------- 
<bad format>4510408500: system.cpu: Total Cycles :: 9000000 
4510408500: system.cpu: Tread 0 :: Base : 276836, L1miss : 3217203, Branch : 3983, D1miss : 1338200, Wait : 0, Misc : 0, Total : 4836222
4560408500: system.cpu: -------------------------------------------------- 
<bad format>4560408500: system.cpu: Total Cycles :: 9100000 
4560408500: system.cpu: Tread 0 :: Base : 280068, L1miss : 3252970, Branch : 3983, D1miss : 1352148, Wait : 0, Misc : 0, Total : 4889169
4610408500: system.cpu: -------------------------------------------------- 
<bad format>4610408500: system.cpu: Total Cycles :: 9200000 
4610408500: system.cpu: Tread 0 :: Base : 283308, L1miss : 3289251, Branch : 3983, D1miss : 1366040, Wait : 0, Misc : 0, Total : 4942582
4660408500: system.cpu: -------------------------------------------------- 
<bad format>4660408500: system.cpu: Total Cycles :: 9300000 
4660408500: system.cpu: Tread 0 :: Base : 286529, L1miss : 3324828, Branch : 3983, D1miss : 1379905, Wait : 0, Misc : 0, Total : 4995245
4710408500: system.cpu: -------------------------------------------------- 
<bad format>4710408500: system.cpu: Total Cycles :: 9400000 
4710408500: system.cpu: Tread 0 :: Base : 289749, L1miss : 3360469, Branch : 3983, D1miss : 1393857, Wait : 0, Misc : 0, Total : 5048058
4760408500: system.cpu: -------------------------------------------------- 
<bad format>4760408500: system.cpu: Total Cycles :: 9500000 
4760408500: system.cpu: Tread 0 :: Base : 292956, L1miss : 3396692, Branch : 3983, D1miss : 1407691, Wait : 0, Misc : 0, Total : 5101322
4810408500: system.cpu: -------------------------------------------------- 
<bad format>4810408500: system.cpu: Total Cycles :: 9600000 
4810408500: system.cpu: Tread 0 :: Base : 296201, L1miss : 3432663, Branch : 3983, D1miss : 1421694, Wait : 0, Misc : 0, Total : 5154541
4860408500: system.cpu: -------------------------------------------------- 
<bad format>4860408500: system.cpu: Total Cycles :: 9700000 
4860408500: system.cpu: Tread 0 :: Base : 299436, L1miss : 3468523, Branch : 3983, D1miss : 1435587, Wait : 0, Misc : 0, Total : 5207529
4910408500: system.cpu: -------------------------------------------------- 
<bad format>4910408500: system.cpu: Total Cycles :: 9800000 
4910408500: system.cpu: Tread 0 :: Base : 302668, L1miss : 3504291, Branch : 3983, D1miss : 1449534, Wait : 0, Misc : 0, Total : 5260476
4960408500: system.cpu: -------------------------------------------------- 
<bad format>4960408500: system.cpu: Total Cycles :: 9900000 
4960408500: system.cpu: Tread 0 :: Base : 305857, L1miss : 3540310, Branch : 3983, D1miss : 1463427, Wait : 0, Misc : 0, Total : 5313577
5010408500: system.cpu: RESET 0 0 0
5010408500: system.cpu: -------------------------------------------------- 
<bad format>5010408500: system.cpu: Total Cycles :: 10000000 
5010408500: system.cpu: Tread 0 :: Base : 309094, L1miss : 3575406, Branch : 3983, D1miss : 1477292, Wait : 0, Misc : 0, Total : 5365775
5060408500: system.cpu: -------------------------------------------------- 
<bad format>5060408500: system.cpu: Total Cycles :: 10100000 
5060408500: system.cpu: Tread 0 :: Base : 312356, L1miss : 3610973, Branch : 3983, D1miss : 1491240, Wait : 0, Misc : 0, Total : 5418552
5110408500: system.cpu: -------------------------------------------------- 
<bad format>5110408500: system.cpu: Total Cycles :: 10200000 
5110408500: system.cpu: Tread 0 :: Base : 315561, L1miss : 3647344, Branch : 3983, D1miss : 1505078, Wait : 0, Misc : 0, Total : 5471966
5160408500: system.cpu: -------------------------------------------------- 
<bad format>5160408500: system.cpu: Total Cycles :: 10300000 
5160408500: system.cpu: Tread 0 :: Base : 318806, L1miss : 3682805, Branch : 3983, D1miss : 1519081, Wait : 0, Misc : 0, Total : 5524675
5210408500: system.cpu: -------------------------------------------------- 
<bad format>5210408500: system.cpu: Total Cycles :: 10400000 
5210408500: system.cpu: Tread 0 :: Base : 321996, L1miss : 3718245, Branch : 3983, D1miss : 1532973, Wait : 0, Misc : 0, Total : 5577197
Loading Input Data
Duplicating 652307 bytes
5263121500: system.cpu: -------------------------------------------------- 
<bad format>5263121500: system.cpu: Total Cycles :: 10500000 
5263121500: system.cpu: Tread 0 :: Base : 325242, L1miss : 3752361, Branch : 4868, D1miss : 1535952, Wait : 0, Misc : 0, Total : 5618423
5313121500: system.cpu: -------------------------------------------------- 
<bad format>5313121500: system.cpu: Total Cycles :: 10600000 
5313121500: system.cpu: Tread 0 :: Base : 327755, L1miss : 3783580, Branch : 4868, D1miss : 1536040, Wait : 0, Misc : 0, Total : 5652243
5363121500: system.cpu: -------------------------------------------------- 
<bad format>5363121500: system.cpu: Total Cycles :: 10700000 
5363121500: system.cpu: Tread 0 :: Base : 329263, L1miss : 3797918, Branch : 4868, D1miss : 1536044, Wait : 0, Misc : 0, Total : 5668093
5413121500: system.cpu: -------------------------------------------------- 
<bad format>5413121500: system.cpu: Total Cycles :: 10800000 
5413121500: system.cpu: Tread 0 :: Base : 332561, L1miss : 3831379, Branch : 4868, D1miss : 1536045, Wait : 0, Misc : 0, Total : 5704853
5463121500: system.cpu: -------------------------------------------------- 
<bad format>5463121500: system.cpu: Total Cycles :: 10900000 
5463121500: system.cpu: Tread 0 :: Base : 334370, L1miss : 3851185, Branch : 4868, D1miss : 1536047, Wait : 0, Misc : 0, Total : 5726470
5513121500: system.cpu: RESET 0 0 0
5513121500: system.cpu: -------------------------------------------------- 
<bad format>5513121500: system.cpu: Total Cycles :: 11000000 
5513121500: system.cpu: Tread 0 :: Base : 337303, L1miss : 3879987, Branch : 4868, D1miss : 1536047, Wait : 0, Misc : 0, Total : 5758205
5563121500: system.cpu: -------------------------------------------------- 
<bad format>5563121500: system.cpu: Total Cycles :: 11100000 
5563121500: system.cpu: Tread 0 :: Base : 339804, L1miss : 3909753, Branch : 4868, D1miss : 1536048, Wait : 0, Misc : 0, Total : 5790473
5613121500: system.cpu: -------------------------------------------------- 
<bad format>5613121500: system.cpu: Total Cycles :: 11200000 
5613121500: system.cpu: Tread 0 :: Base : 341308, L1miss : 3924131, Branch : 4868, D1miss : 1536049, Wait : 0, Misc : 0, Total : 5806356
5663121500: system.cpu: -------------------------------------------------- 
<bad format>5663121500: system.cpu: Total Cycles :: 11300000 
5663121500: system.cpu: Tread 0 :: Base : 344201, L1miss : 3953545, Branch : 4868, D1miss : 1536051, Wait : 0, Misc : 0, Total : 5838665
5713121500: system.cpu: -------------------------------------------------- 
<bad format>5713121500: system.cpu: Total Cycles :: 11400000 
5713121500: system.cpu: Tread 0 :: Base : 345679, L1miss : 3968074, Branch : 4868, D1miss : 1536052, Wait : 0, Misc : 0, Total : 5854673
5763121500: system.cpu: -------------------------------------------------- 
<bad format>5763121500: system.cpu: Total Cycles :: 11500000 
5763121500: system.cpu: Tread 0 :: Base : 349020, L1miss : 4007599, Branch : 4868, D1miss : 1536052, Wait : 0, Misc : 0, Total : 5897539
5813121500: system.cpu: -------------------------------------------------- 
<bad format>5813121500: system.cpu: Total Cycles :: 11600000 
5813121500: system.cpu: Tread 0 :: Base : 350437, L1miss : 4022738, Branch : 4868, D1miss : 1536053, Wait : 0, Misc : 0, Total : 5914096
Duplicating 1304614 bytes
5863121500: system.cpu: -------------------------------------------------- 
<bad format>5863121500: system.cpu: Total Cycles :: 11700000 
5863121500: system.cpu: Tread 0 :: Base : 354078, L1miss : 4061306, Branch : 5921, D1miss : 1536196, Wait : 0, Misc : 0, Total : 5957501
5913121500: system.cpu: -------------------------------------------------- 
<bad format>5913121500: system.cpu: Total Cycles :: 11800000 
5913121500: system.cpu: Tread 0 :: Base : 356431, L1miss : 4087173, Branch : 5921, D1miss : 1536196, Wait : 0, Misc : 0, Total : 5985721
5963121500: system.cpu: -------------------------------------------------- 
<bad format>5963121500: system.cpu: Total Cycles :: 11900000 
5963121500: system.cpu: Tread 0 :: Base : 358649, L1miss : 4109040, Branch : 5921, D1miss : 1536196, Wait : 0, Misc : 0, Total : 6009806
6013121500: system.cpu: RESET 0 0 0
6013121500: system.cpu: -------------------------------------------------- 
<bad format>6013121500: system.cpu: Total Cycles :: 12000000 
6013121500: system.cpu: Tread 0 :: Base : 362008, L1miss : 4142059, Branch : 5921, D1miss : 1536196, Wait : 0, Misc : 0, Total : 6046184
6063121500: system.cpu: -------------------------------------------------- 
<bad format>6063121500: system.cpu: Total Cycles :: 12100000 
6063121500: system.cpu: Tread 0 :: Base : 365003, L1miss : 4172402, Branch : 5921, D1miss : 1536196, Wait : 0, Misc : 0, Total : 6079522
6113121500: system.cpu: -------------------------------------------------- 
<bad format>6113121500: system.cpu: Total Cycles :: 12200000 
6113121500: system.cpu: Tread 0 :: Base : 366553, L1miss : 4189402, Branch : 5921, D1miss : 1536196, Wait : 0, Misc : 0, Total : 6098072
6163121500: system.cpu: -------------------------------------------------- 
<bad format>6163121500: system.cpu: Total Cycles :: 12300000 
6163121500: system.cpu: Tread 0 :: Base : 370177, L1miss : 4227324, Branch : 5921, D1miss : 1536196, Wait : 0, Misc : 0, Total : 6139618
6213121500: system.cpu: -------------------------------------------------- 
<bad format>6213121500: system.cpu: Total Cycles :: 12400000 
6213121500: system.cpu: Tread 0 :: Base : 371971, L1miss : 4243715, Branch : 5921, D1miss : 1536196, Wait : 0, Misc : 0, Total : 6157803
6263121500: system.cpu: -------------------------------------------------- 
<bad format>6263121500: system.cpu: Total Cycles :: 12500000 
6263121500: system.cpu: Tread 0 :: Base : 374685, L1miss : 4270783, Branch : 5921, D1miss : 1536196, Wait : 0, Misc : 0, Total : 6187585
6313121500: system.cpu: -------------------------------------------------- 
<bad format>6313121500: system.cpu: Total Cycles :: 12600000 
6313121500: system.cpu: Tread 0 :: Base : 377938, L1miss : 4303372, Branch : 5921, D1miss : 1536196, Wait : 0, Misc : 0, Total : 6223427
6363121500: system.cpu: -------------------------------------------------- 
<bad format>6363121500: system.cpu: Total Cycles :: 12700000 
6363121500: system.cpu: Tread 0 :: Base : 380329, L1miss : 4327547, Branch : 5921, D1miss : 1536196, Wait : 0, Misc : 0, Total : 6249993
6413121500: system.cpu: -------------------------------------------------- 
<bad format>6413121500: system.cpu: Total Cycles :: 12800000 
6413121500: system.cpu: Tread 0 :: Base : 383193, L1miss : 4358130, Branch : 5921, D1miss : 1536196, Wait : 0, Misc : 0, Total : 6283440
6463121500: system.cpu: -------------------------------------------------- 
<bad format>6463121500: system.cpu: Total Cycles :: 12900000 
6463121500: system.cpu: Tread 0 :: Base : 384636, L1miss : 4371438, Branch : 5921, D1miss : 1536196, Wait : 0, Misc : 0, Total : 6298191
6513121500: system.cpu: RESET 0 0 0
6513121500: system.cpu: -------------------------------------------------- 
<bad format>6513121500: system.cpu: Total Cycles :: 13000000 
6513121500: system.cpu: Tread 0 :: Base : 387683, L1miss : 4398464, Branch : 5921, D1miss : 1536196, Wait : 0, Misc : 0, Total : 6328264
6563121500: system.cpu: -------------------------------------------------- 
<bad format>6563121500: system.cpu: Total Cycles :: 13100000 
6563121500: system.cpu: Tread 0 :: Base : 390400, L1miss : 4426362, Branch : 5921, D1miss : 1536196, Wait : 0, Misc : 0, Total : 6358879
6613121500: system.cpu: -------------------------------------------------- 
<bad format>6613121500: system.cpu: Total Cycles :: 13200000 
6613121500: system.cpu: Tread 0 :: Base : 392993, L1miss : 4449948, Branch : 5921, D1miss : 1536196, Wait : 0, Misc : 0, Total : 6385058
6663121500: system.cpu: -------------------------------------------------- 
<bad format>6663121500: system.cpu: Total Cycles :: 13300000 
6663121500: system.cpu: Tread 0 :: Base : 395546, L1miss : 4475954, Branch : 5921, D1miss : 1536196, Wait : 0, Misc : 0, Total : 6413617
6713121500: system.cpu: -------------------------------------------------- 
<bad format>6713121500: system.cpu: Total Cycles :: 13400000 
6713121500: system.cpu: Tread 0 :: Base : 399058, L1miss : 4512675, Branch : 5921, D1miss : 1536196, Wait : 0, Misc : 0, Total : 6453850
6763121500: system.cpu: -------------------------------------------------- 
<bad format>6763121500: system.cpu: Total Cycles :: 13500000 
6763121500: system.cpu: Tread 0 :: Base : 400464, L1miss : 4527166, Branch : 5921, D1miss : 1536196, Wait : 0, Misc : 0, Total : 6469747
6813121500: system.cpu: -------------------------------------------------- 
<bad format>6813121500: system.cpu: Total Cycles :: 13600000 
6813121500: system.cpu: Tread 0 :: Base : 403245, L1miss : 4552826, Branch : 5921, D1miss : 1536196, Wait : 0, Misc : 0, Total : 6498188
6863121500: system.cpu: -------------------------------------------------- 
<bad format>6863121500: system.cpu: Total Cycles :: 13700000 
6863121500: system.cpu: Tread 0 :: Base : 405462, L1miss : 4572880, Branch : 5921, D1miss : 1536196, Wait : 0, Misc : 0, Total : 6520459
6913121500: system.cpu: -------------------------------------------------- 
<bad format>6913121500: system.cpu: Total Cycles :: 13800000 
6913121500: system.cpu: Tread 0 :: Base : 408488, L1miss : 4603360, Branch : 5921, D1miss : 1536196, Wait : 0, Misc : 0, Total : 6553965
Duplicating 2609228 bytes
6963121500: system.cpu: -------------------------------------------------- 
<bad format>6963121500: system.cpu: Total Cycles :: 13900000 
6963121500: system.cpu: Tread 0 :: Base : 412158, L1miss : 4636930, Branch : 6623, D1miss : 1536385, Wait : 0, Misc : 0, Total : 6592096
7013121500: system.cpu: RESET 0 0 0
7013121500: system.cpu: -------------------------------------------------- 
<bad format>7013121500: system.cpu: Total Cycles :: 14000000 
7013121500: system.cpu: Tread 0 :: Base : 415525, L1miss : 4663209, Branch : 6623, D1miss : 1536385, Wait : 0, Misc : 0, Total : 6621742
7063121500: system.cpu: -------------------------------------------------- 
<bad format>7063121500: system.cpu: Total Cycles :: 14100000 
7063121500: system.cpu: Tread 0 :: Base : 419088, L1miss : 4693267, Branch : 6623, D1miss : 1536385, Wait : 0, Misc : 0, Total : 6655363
7113121500: system.cpu: -------------------------------------------------- 
<bad format>7113121500: system.cpu: Total Cycles :: 14200000 
7113121500: system.cpu: Tread 0 :: Base : 422475, L1miss : 4719893, Branch : 6623, D1miss : 1536385, Wait : 0, Misc : 0, Total : 6685376
7163121500: system.cpu: -------------------------------------------------- 
<bad format>7163121500: system.cpu: Total Cycles :: 14300000 
7163121500: system.cpu: Tread 0 :: Base : 426323, L1miss : 4750462, Branch : 6623, D1miss : 1536385, Wait : 0, Misc : 0, Total : 6719793
7213121500: system.cpu: -------------------------------------------------- 
<bad format>7213121500: system.cpu: Total Cycles :: 14400000 
7213121500: system.cpu: Tread 0 :: Base : 429264, L1miss : 4772556, Branch : 6623, D1miss : 1536385, Wait : 0, Misc : 0, Total : 6744828
7263121500: system.cpu: -------------------------------------------------- 
<bad format>7263121500: system.cpu: Total Cycles :: 14500000 
7263121500: system.cpu: Tread 0 :: Base : 432579, L1miss : 4798542, Branch : 6623, D1miss : 1536385, Wait : 0, Misc : 0, Total : 6774129
7313121500: system.cpu: -------------------------------------------------- 
<bad format>7313121500: system.cpu: Total Cycles :: 14600000 
7313121500: system.cpu: Tread 0 :: Base : 434565, L1miss : 4813617, Branch : 6623, D1miss : 1536385, Wait : 0, Misc : 0, Total : 6791190
7363121500: system.cpu: -------------------------------------------------- 
<bad format>7363121500: system.cpu: Total Cycles :: 14700000 
7363121500: system.cpu: Tread 0 :: Base : 437941, L1miss : 4840388, Branch : 6623, D1miss : 1536385, Wait : 0, Misc : 0, Total : 6821337
7413121500: system.cpu: -------------------------------------------------- 
<bad format>7413121500: system.cpu: Total Cycles :: 14800000 
7413121500: system.cpu: Tread 0 :: Base : 441360, L1miss : 4866989, Branch : 6623, D1miss : 1536385, Wait : 0, Misc : 0, Total : 6851357
7463121500: system.cpu: -------------------------------------------------- 
<bad format>7463121500: system.cpu: Total Cycles :: 14900000 
7463121500: system.cpu: Tread 0 :: Base : 444727, L1miss : 4892570, Branch : 6623, D1miss : 1536385, Wait : 0, Misc : 0, Total : 6880305
7513121500: system.cpu: RESET 0 0 0
7513121500: system.cpu: -------------------------------------------------- 
<bad format>7513121500: system.cpu: Total Cycles :: 15000000 
7513121500: system.cpu: Tread 0 :: Base : 448024, L1miss : 4918438, Branch : 6623, D1miss : 1536385, Wait : 0, Misc : 0, Total : 6909470
7563121500: system.cpu: -------------------------------------------------- 
<bad format>7563121500: system.cpu: Total Cycles :: 15100000 
7563121500: system.cpu: Tread 0 :: Base : 451209, L1miss : 4942636, Branch : 6623, D1miss : 1536385, Wait : 0, Misc : 0, Total : 6936853
7613121500: system.cpu: -------------------------------------------------- 
<bad format>7613121500: system.cpu: Total Cycles :: 15200000 
7613121500: system.cpu: Tread 0 :: Base : 454945, L1miss : 4972975, Branch : 6623, D1miss : 1536385, Wait : 0, Misc : 0, Total : 6970928
7663121500: system.cpu: -------------------------------------------------- 
<bad format>7663121500: system.cpu: Total Cycles :: 15300000 
7663121500: system.cpu: Tread 0 :: Base : 458404, L1miss : 4999650, Branch : 6623, D1miss : 1536385, Wait : 0, Misc : 0, Total : 7001062
7713121500: system.cpu: -------------------------------------------------- 
<bad format>7713121500: system.cpu: Total Cycles :: 15400000 
7713121500: system.cpu: Tread 0 :: Base : 461104, L1miss : 5019871, Branch : 6623, D1miss : 1536385, Wait : 0, Misc : 0, Total : 7023983
7763121500: system.cpu: -------------------------------------------------- 
<bad format>7763121500: system.cpu: Total Cycles :: 15500000 
7763121500: system.cpu: Tread 0 :: Base : 463411, L1miss : 5038717, Branch : 6623, D1miss : 1536385, Wait : 0, Misc : 0, Total : 7045136
7813121500: system.cpu: -------------------------------------------------- 
<bad format>7813121500: system.cpu: Total Cycles :: 15600000 
7813121500: system.cpu: Tread 0 :: Base : 467102, L1miss : 5068395, Branch : 6623, D1miss : 1536385, Wait : 0, Misc : 0, Total : 7078505
7863121500: system.cpu: -------------------------------------------------- 
<bad format>7863121500: system.cpu: Total Cycles :: 15700000 
7863121500: system.cpu: Tread 0 :: Base : 470054, L1miss : 5090654, Branch : 6623, D1miss : 1536385, Wait : 0, Misc : 0, Total : 7103716
7913121500: system.cpu: -------------------------------------------------- 
<bad format>7913121500: system.cpu: Total Cycles :: 15800000 
7913121500: system.cpu: Tread 0 :: Base : 473858, L1miss : 5120675, Branch : 6623, D1miss : 1536385, Wait : 0, Misc : 0, Total : 7137541
7963121500: system.cpu: -------------------------------------------------- 
<bad format>7963121500: system.cpu: Total Cycles :: 15900000 
7963121500: system.cpu: Tread 0 :: Base : 476466, L1miss : 5139991, Branch : 6623, D1miss : 1536385, Wait : 0, Misc : 0, Total : 7159465
8013121500: system.cpu: RESET 0 0 0
8013121500: system.cpu: -------------------------------------------------- 
<bad format>8013121500: system.cpu: Total Cycles :: 16000000 
8013121500: system.cpu: Tread 0 :: Base : 478953, L1miss : 5159924, Branch : 6623, D1miss : 1536385, Wait : 0, Misc : 0, Total : 7181885
8063121500: system.cpu: -------------------------------------------------- 
<bad format>8063121500: system.cpu: Total Cycles :: 16100000 
8063121500: system.cpu: Tread 0 :: Base : 482128, L1miss : 5184854, Branch : 6623, D1miss : 1536385, Wait : 0, Misc : 0, Total : 7209990
8113121500: system.cpu: -------------------------------------------------- 
<bad format>8113121500: system.cpu: Total Cycles :: 16200000 
8113121500: system.cpu: Tread 0 :: Base : 485501, L1miss : 5210570, Branch : 6623, D1miss : 1536385, Wait : 0, Misc : 0, Total : 7239079
8163121500: system.cpu: -------------------------------------------------- 
<bad format>8163121500: system.cpu: Total Cycles :: 16300000 
8163121500: system.cpu: Tread 0 :: Base : 488799, L1miss : 5236438, Branch : 6623, D1miss : 1536385, Wait : 0, Misc : 0, Total : 7268245
8213121500: system.cpu: -------------------------------------------------- 
<bad format>8213121500: system.cpu: Total Cycles :: 16400000 
8213121500: system.cpu: Tread 0 :: Base : 492244, L1miss : 5263075, Branch : 6623, D1miss : 1536385, Wait : 0, Misc : 0, Total : 7298327
8263121500: system.cpu: -------------------------------------------------- 
<bad format>8263121500: system.cpu: Total Cycles :: 16500000 
8263121500: system.cpu: Tread 0 :: Base : 494561, L1miss : 5280305, Branch : 6623, D1miss : 1536385, Wait : 0, Misc : 0, Total : 7317874
8313121500: system.cpu: -------------------------------------------------- 
<bad format>8313121500: system.cpu: Total Cycles :: 16600000 
8313121500: system.cpu: Tread 0 :: Base : 497143, L1miss : 5300397, Branch : 6623, D1miss : 1536385, Wait : 0, Misc : 0, Total : 7340548
8363121500: system.cpu: -------------------------------------------------- 
<bad format>8363121500: system.cpu: Total Cycles :: 16700000 
8363121500: system.cpu: Tread 0 :: Base : 500956, L1miss : 5331858, Branch : 6623, D1miss : 1536385, Wait : 0, Misc : 0, Total : 7375822
8413121500: system.cpu: -------------------------------------------------- 
<bad format>8413121500: system.cpu: Total Cycles :: 16800000 
8413121500: system.cpu: Tread 0 :: Base : 503908, L1miss : 5354117, Branch : 6623, D1miss : 1536385, Wait : 0, Misc : 0, Total : 7401033
8463121500: system.cpu: -------------------------------------------------- 
<bad format>8463121500: system.cpu: Total Cycles :: 16900000 
8463121500: system.cpu: Tread 0 :: Base : 507703, L1miss : 5384003, Branch : 6623, D1miss : 1536385, Wait : 0, Misc : 0, Total : 7434714
8513121500: system.cpu: RESET 0 0 0
8513121500: system.cpu: -------------------------------------------------- 
<bad format>8513121500: system.cpu: Total Cycles :: 17000000 
8513121500: system.cpu: Tread 0 :: Base : 510011, L1miss : 5400770, Branch : 6623, D1miss : 1536385, Wait : 0, Misc : 0, Total : 7453789
8563121500: system.cpu: -------------------------------------------------- 
<bad format>8563121500: system.cpu: Total Cycles :: 17100000 
8563121500: system.cpu: Tread 0 :: Base : 513585, L1miss : 5430388, Branch : 6623, D1miss : 1536385, Wait : 0, Misc : 0, Total : 7486981
8613121500: system.cpu: -------------------------------------------------- 
<bad format>8613121500: system.cpu: Total Cycles :: 17200000 
8613121500: system.cpu: Tread 0 :: Base : 517020, L1miss : 5456141, Branch : 6623, D1miss : 1536385, Wait : 0, Misc : 0, Total : 7516169
8663121500: system.cpu: -------------------------------------------------- 
<bad format>8663121500: system.cpu: Total Cycles :: 17300000 
8663121500: system.cpu: Tread 0 :: Base : 520379, L1miss : 5481799, Branch : 6623, D1miss : 1536385, Wait : 0, Misc : 0, Total : 7545186
8713121500: system.cpu: -------------------------------------------------- 
<bad format>8713121500: system.cpu: Total Cycles :: 17400000 
8713121500: system.cpu: Tread 0 :: Base : 523676, L1miss : 5507668, Branch : 6623, D1miss : 1536385, Wait : 0, Misc : 0, Total : 7574352
8763121500: system.cpu: -------------------------------------------------- 
<bad format>8763121500: system.cpu: Total Cycles :: 17500000 
8763121500: system.cpu: Tread 0 :: Base : 527032, L1miss : 5534240, Branch : 6623, D1miss : 1536385, Wait : 0, Misc : 0, Total : 7604280
Duplicating 5218456 bytes
8813184500: system.cpu: -------------------------------------------------- 
<bad format>8813184500: system.cpu: Total Cycles :: 17600000 
8813184500: system.cpu: Tread 0 :: Base : 529150, L1miss : 5546274, Branch : 7252, D1miss : 1536531, Wait : 0, Misc : 0, Total : 7619207
8863184500: system.cpu: -------------------------------------------------- 
<bad format>8863184500: system.cpu: Total Cycles :: 17700000 
8863184500: system.cpu: Tread 0 :: Base : 531095, L1miss : 5559242, Branch : 7252, D1miss : 1536531, Wait : 0, Misc : 0, Total : 7634120
8913184500: system.cpu: -------------------------------------------------- 
<bad format>8913184500: system.cpu: Total Cycles :: 17800000 
8913184500: system.cpu: Tread 0 :: Base : 531288, L1miss : 5560417, Branch : 7252, D1miss : 1536531, Wait : 0, Misc : 0, Total : 7635488
8963184500: system.cpu: -------------------------------------------------- 
<bad format>8963184500: system.cpu: Total Cycles :: 17900000 
8963184500: system.cpu: Tread 0 :: Base : 532293, L1miss : 5566326, Branch : 7252, D1miss : 1536531, Wait : 0, Misc : 0, Total : 7642402
9013184500: system.cpu: RESET 0 0 0
9013184500: system.cpu: -------------------------------------------------- 
<bad format>9013184500: system.cpu: Total Cycles :: 18000000 
9013184500: system.cpu: Tread 0 :: Base : 533110, L1miss : 5571958, Branch : 7252, D1miss : 1536531, Wait : 0, Misc : 0, Total : 7648851
9063184500: system.cpu: -------------------------------------------------- 
<bad format>9063184500: system.cpu: Total Cycles :: 18100000 
9063184500: system.cpu: Tread 0 :: Base : 534028, L1miss : 5579311, Branch : 7252, D1miss : 1536531, Wait : 0, Misc : 0, Total : 7657122
9113184500: system.cpu: -------------------------------------------------- 
<bad format>9113184500: system.cpu: Total Cycles :: 18200000 
9113184500: system.cpu: Tread 0 :: Base : 535136, L1miss : 5585543, Branch : 7252, D1miss : 1536531, Wait : 0, Misc : 0, Total : 7664462
9163184500: system.cpu: -------------------------------------------------- 
<bad format>9163184500: system.cpu: Total Cycles :: 18300000 
9163184500: system.cpu: Tread 0 :: Base : 536934, L1miss : 5597371, Branch : 7252, D1miss : 1536531, Wait : 0, Misc : 0, Total : 7678088
9213184500: system.cpu: -------------------------------------------------- 
<bad format>9213184500: system.cpu: Total Cycles :: 18400000 
9213184500: system.cpu: Tread 0 :: Base : 538992, L1miss : 5608863, Branch : 7252, D1miss : 1536531, Wait : 0, Misc : 0, Total : 7691638
9263184500: system.cpu: -------------------------------------------------- 
<bad format>9263184500: system.cpu: Total Cycles :: 18500000 
9263184500: system.cpu: Tread 0 :: Base : 538992, L1miss : 5608863, Branch : 7252, D1miss : 1536531, Wait : 0, Misc : 0, Total : 7691638
9313184500: system.cpu: -------------------------------------------------- 
<bad format>9313184500: system.cpu: Total Cycles :: 18600000 
9313184500: system.cpu: Tread 0 :: Base : 539796, L1miss : 5613814, Branch : 7252, D1miss : 1536531, Wait : 0, Misc : 0, Total : 7697393
9363184500: system.cpu: -------------------------------------------------- 
<bad format>9363184500: system.cpu: Total Cycles :: 18700000 
9363184500: system.cpu: Tread 0 :: Base : 540982, L1miss : 5620681, Branch : 7252, D1miss : 1536531, Wait : 0, Misc : 0, Total : 7705446
9413184500: system.cpu: -------------------------------------------------- 
<bad format>9413184500: system.cpu: Total Cycles :: 18800000 
9413184500: system.cpu: Tread 0 :: Base : 542743, L1miss : 5631737, Branch : 7252, D1miss : 1536531, Wait : 0, Misc : 0, Total : 7718263
9463184500: system.cpu: -------------------------------------------------- 
<bad format>9463184500: system.cpu: Total Cycles :: 18900000 
9463184500: system.cpu: Tread 0 :: Base : 544697, L1miss : 5642641, Branch : 7252, D1miss : 1536531, Wait : 0, Misc : 0, Total : 7731121
9513184500: system.cpu: RESET 0 0 0
9513184500: system.cpu: -------------------------------------------------- 
<bad format>9513184500: system.cpu: Total Cycles :: 19000000 
9513184500: system.cpu: Tread 0 :: Base : 544791, L1miss : 5643220, Branch : 7252, D1miss : 1536531, Wait : 0, Misc : 0, Total : 7731794
9563184500: system.cpu: -------------------------------------------------- 
<bad format>9563184500: system.cpu: Total Cycles :: 19100000 
9563184500: system.cpu: Tread 0 :: Base : 546206, L1miss : 5651761, Branch : 7252, D1miss : 1536531, Wait : 0, Misc : 0, Total : 7741750
9613184500: system.cpu: -------------------------------------------------- 
<bad format>9613184500: system.cpu: Total Cycles :: 19200000 
9613184500: system.cpu: Tread 0 :: Base : 547401, L1miss : 5658654, Branch : 7252, D1miss : 1536531, Wait : 0, Misc : 0, Total : 7749838
9663184500: system.cpu: -------------------------------------------------- 
<bad format>9663184500: system.cpu: Total Cycles :: 19300000 
9663184500: system.cpu: Tread 0 :: Base : 549163, L1miss : 5669710, Branch : 7252, D1miss : 1536531, Wait : 0, Misc : 0, Total : 7762656
9713184500: system.cpu: -------------------------------------------------- 
<bad format>9713184500: system.cpu: Total Cycles :: 19400000 
9713184500: system.cpu: Tread 0 :: Base : 551210, L1miss : 5681193, Branch : 7252, D1miss : 1536531, Wait : 0, Misc : 0, Total : 7776186
9763184500: system.cpu: -------------------------------------------------- 
<bad format>9763184500: system.cpu: Total Cycles :: 19500000 
9763184500: system.cpu: Tread 0 :: Base : 551210, L1miss : 5681193, Branch : 7252, D1miss : 1536531, Wait : 0, Misc : 0, Total : 7776186
9813184500: system.cpu: -------------------------------------------------- 
<bad format>9813184500: system.cpu: Total Cycles :: 19600000 
9813184500: system.cpu: Tread 0 :: Base : 552126, L1miss : 5687030, Branch : 7252, D1miss : 1536531, Wait : 0, Misc : 0, Total : 7782939
9863184500: system.cpu: -------------------------------------------------- 
<bad format>9863184500: system.cpu: Total Cycles :: 19700000 
9863184500: system.cpu: Tread 0 :: Base : 553134, L1miss : 5692884, Branch : 7252, D1miss : 1536531, Wait : 0, Misc : 0, Total : 7789801
9913184500: system.cpu: -------------------------------------------------- 
<bad format>9913184500: system.cpu: Total Cycles :: 19800000 
9913184500: system.cpu: Tread 0 :: Base : 554858, L1miss : 5703382, Branch : 7252, D1miss : 1536531, Wait : 0, Misc : 0, Total : 7802023
9963184500: system.cpu: -------------------------------------------------- 
<bad format>9963184500: system.cpu: Total Cycles :: 19900000 
9963184500: system.cpu: Tread 0 :: Base : 556751, L1miss : 5714245, Branch : 7252, D1miss : 1536531, Wait : 0, Misc : 0, Total : 7814779
10013184500: system.cpu: RESET 0 0 0
10013184500: system.cpu: -------------------------------------------------- 
<bad format>10013184500: system.cpu: Total Cycles :: 20000000 
10013184500: system.cpu: Tread 0 :: Base : 556929, L1miss : 5716507, Branch : 7252, D1miss : 1536531, Wait : 0, Misc : 0, Total : 7817219
10063184500: system.cpu: -------------------------------------------------- 
<bad format>10063184500: system.cpu: Total Cycles :: 20100000 
10063184500: system.cpu: Tread 0 :: Base : 558741, L1miss : 5727806, Branch : 7252, D1miss : 1536531, Wait : 0, Misc : 0, Total : 7830330
10113184500: system.cpu: -------------------------------------------------- 
<bad format>10113184500: system.cpu: Total Cycles :: 20200000 
10113184500: system.cpu: Tread 0 :: Base : 559757, L1miss : 5733686, Branch : 7252, D1miss : 1536531, Wait : 0, Misc : 0, Total : 7837226
10163184500: system.cpu: -------------------------------------------------- 
<bad format>10163184500: system.cpu: Total Cycles :: 20300000 
10163184500: system.cpu: Tread 0 :: Base : 561482, L1miss : 5744184, Branch : 7252, D1miss : 1536531, Wait : 0, Misc : 0, Total : 7849449
10213184500: system.cpu: -------------------------------------------------- 
<bad format>10213184500: system.cpu: Total Cycles :: 20400000 
10213184500: system.cpu: Tread 0 :: Base : 563546, L1miss : 5756154, Branch : 7252, D1miss : 1536531, Wait : 0, Misc : 0, Total : 7863483
10263184500: system.cpu: -------------------------------------------------- 
<bad format>10263184500: system.cpu: Total Cycles :: 20500000 
10263184500: system.cpu: Tread 0 :: Base : 563553, L1miss : 5757309, Branch : 7252, D1miss : 1536531, Wait : 0, Misc : 0, Total : 7864645
10313184500: system.cpu: -------------------------------------------------- 
<bad format>10313184500: system.cpu: Total Cycles :: 20600000 
10313184500: system.cpu: Tread 0 :: Base : 564687, L1miss : 5763750, Branch : 7252, D1miss : 1536531, Wait : 0, Misc : 0, Total : 7872220
10363184500: system.cpu: -------------------------------------------------- 
<bad format>10363184500: system.cpu: Total Cycles :: 20700000 
10363184500: system.cpu: Tread 0 :: Base : 565898, L1miss : 5771926, Branch : 7252, D1miss : 1536531, Wait : 0, Misc : 0, Total : 7881607
10413184500: system.cpu: -------------------------------------------------- 
<bad format>10413184500: system.cpu: Total Cycles :: 20800000 
10413184500: system.cpu: Tread 0 :: Base : 567618, L1miss : 5781095, Branch : 7252, D1miss : 1536531, Wait : 0, Misc : 0, Total : 7892496
10463184500: system.cpu: -------------------------------------------------- 
<bad format>10463184500: system.cpu: Total Cycles :: 20900000 
10463184500: system.cpu: Tread 0 :: Base : 569467, L1miss : 5793510, Branch : 7252, D1miss : 1536531, Wait : 0, Misc : 0, Total : 7906760
10513184500: system.cpu: RESET 0 0 0
10513184500: system.cpu: -------------------------------------------------- 
<bad format>10513184500: system.cpu: Total Cycles :: 21000000 
10513184500: system.cpu: Tread 0 :: Base : 569538, L1miss : 5793863, Branch : 7252, D1miss : 1536531, Wait : 0, Misc : 0, Total : 7907184
10563184500: system.cpu: -------------------------------------------------- 
<bad format>10563184500: system.cpu: Total Cycles :: 21100000 
10563184500: system.cpu: Tread 0 :: Base : 569985, L1miss : 5797187, Branch : 7252, D1miss : 1536531, Wait : 0, Misc : 0, Total : 7910955
10613184500: system.cpu: -------------------------------------------------- 
<bad format>10613184500: system.cpu: Total Cycles :: 21200000 
10613184500: system.cpu: Tread 0 :: Base : 571001, L1miss : 5803067, Branch : 7252, D1miss : 1536531, Wait : 0, Misc : 0, Total : 7917851
10663184500: system.cpu: -------------------------------------------------- 
<bad format>10663184500: system.cpu: Total Cycles :: 21300000 
10663184500: system.cpu: Tread 0 :: Base : 572726, L1miss : 5813565, Branch : 7252, D1miss : 1536531, Wait : 0, Misc : 0, Total : 7930074
10713184500: system.cpu: -------------------------------------------------- 
<bad format>10713184500: system.cpu: Total Cycles :: 21400000 
10713184500: system.cpu: Tread 0 :: Base : 574796, L1miss : 5826690, Branch : 7252, D1miss : 1536531, Wait : 0, Misc : 0, Total : 7945269
10763184500: system.cpu: -------------------------------------------------- 
<bad format>10763184500: system.cpu: Total Cycles :: 21500000 
10763184500: system.cpu: Tread 0 :: Base : 574796, L1miss : 5826690, Branch : 7252, D1miss : 1536531, Wait : 0, Misc : 0, Total : 7945269
10813184500: system.cpu: -------------------------------------------------- 
<bad format>10813184500: system.cpu: Total Cycles :: 21600000 
10813184500: system.cpu: Tread 0 :: Base : 575930, L1miss : 5833131, Branch : 7252, D1miss : 1536531, Wait : 0, Misc : 0, Total : 7952844
10863184500: system.cpu: -------------------------------------------------- 
<bad format>10863184500: system.cpu: Total Cycles :: 21700000 
10863184500: system.cpu: Tread 0 :: Base : 577142, L1miss : 5841307, Branch : 7252, D1miss : 1536531, Wait : 0, Misc : 0, Total : 7962232
10913184500: system.cpu: -------------------------------------------------- 
<bad format>10913184500: system.cpu: Total Cycles :: 21800000 
10913184500: system.cpu: Tread 0 :: Base : 578862, L1miss : 5850476, Branch : 7252, D1miss : 1536531, Wait : 0, Misc : 0, Total : 7973121
10963184500: system.cpu: -------------------------------------------------- 
<bad format>10963184500: system.cpu: Total Cycles :: 21900000 
10963184500: system.cpu: Tread 0 :: Base : 580782, L1miss : 5863244, Branch : 7252, D1miss : 1536531, Wait : 0, Misc : 0, Total : 7987809
11013184500: system.cpu: RESET 0 0 0
11013184500: system.cpu: -------------------------------------------------- 
<bad format>11013184500: system.cpu: Total Cycles :: 22000000 
11013184500: system.cpu: Tread 0 :: Base : 580782, L1miss : 5863244, Branch : 7252, D1miss : 1536531, Wait : 0, Misc : 0, Total : 7987809
11063184500: system.cpu: -------------------------------------------------- 
<bad format>11063184500: system.cpu: Total Cycles :: 22100000 
11063184500: system.cpu: Tread 0 :: Base : 581549, L1miss : 5868429, Branch : 7252, D1miss : 1536531, Wait : 0, Misc : 0, Total : 7993761
11113184500: system.cpu: -------------------------------------------------- 
<bad format>11113184500: system.cpu: Total Cycles :: 22200000 
11113184500: system.cpu: Tread 0 :: Base : 582770, L1miss : 5876631, Branch : 7252, D1miss : 1536531, Wait : 0, Misc : 0, Total : 8003184
11163184500: system.cpu: -------------------------------------------------- 
<bad format>11163184500: system.cpu: Total Cycles :: 22300000 
11163184500: system.cpu: Tread 0 :: Base : 584490, L1miss : 5885800, Branch : 7252, D1miss : 1536531, Wait : 0, Misc : 0, Total : 8014073
11213184500: system.cpu: -------------------------------------------------- 
<bad format>11213184500: system.cpu: Total Cycles :: 22400000 
11213184500: system.cpu: Tread 0 :: Base : 586410, L1miss : 5898568, Branch : 7252, D1miss : 1536531, Wait : 0, Misc : 0, Total : 8028761
11263184500: system.cpu: -------------------------------------------------- 
<bad format>11263184500: system.cpu: Total Cycles :: 22500000 
11263184500: system.cpu: Tread 0 :: Base : 586410, L1miss : 5898568, Branch : 7252, D1miss : 1536531, Wait : 0, Misc : 0, Total : 8028761
11313184500: system.cpu: -------------------------------------------------- 
<bad format>11313184500: system.cpu: Total Cycles :: 22600000 
11313184500: system.cpu: Tread 0 :: Base : 587575, L1miss : 5905291, Branch : 7252, D1miss : 1536531, Wait : 0, Misc : 0, Total : 8036649
11363184500: system.cpu: -------------------------------------------------- 
<bad format>11363184500: system.cpu: Total Cycles :: 22700000 
11363184500: system.cpu: Tread 0 :: Base : 588392, L1miss : 5910923, Branch : 7252, D1miss : 1536531, Wait : 0, Misc : 0, Total : 8043098
11413184500: system.cpu: -------------------------------------------------- 
<bad format>11413184500: system.cpu: Total Cycles :: 22800000 
11413184500: system.cpu: Tread 0 :: Base : 590210, L1miss : 5920958, Branch : 7252, D1miss : 1536531, Wait : 0, Misc : 0, Total : 8054951
11463184500: system.cpu: -------------------------------------------------- 
<bad format>11463184500: system.cpu: Total Cycles :: 22900000 
11463184500: system.cpu: Tread 0 :: Base : 592251, L1miss : 5933231, Branch : 7252, D1miss : 1536531, Wait : 0, Misc : 0, Total : 8069265
11513184500: system.cpu: RESET 0 0 0
11513184500: system.cpu: -------------------------------------------------- 
<bad format>11513184500: system.cpu: Total Cycles :: 23000000 
11513184500: system.cpu: Tread 0 :: Base : 592258, L1miss : 5933340, Branch : 7252, D1miss : 1536531, Wait : 0, Misc : 0, Total : 8069381
11563184500: system.cpu: -------------------------------------------------- 
<bad format>11563184500: system.cpu: Total Cycles :: 23100000 
11563184500: system.cpu: Tread 0 :: Base : 593254, L1miss : 5938922, Branch : 7252, D1miss : 1536531, Wait : 0, Misc : 0, Total : 8075959
11613184500: system.cpu: -------------------------------------------------- 
<bad format>11613184500: system.cpu: Total Cycles :: 23200000 
11613184500: system.cpu: Tread 0 :: Base : 594079, L1miss : 5944580, Branch : 7252, D1miss : 1536531, Wait : 0, Misc : 0, Total : 8082442
11663184500: system.cpu: -------------------------------------------------- 
<bad format>11663184500: system.cpu: Total Cycles :: 23300000 
11663184500: system.cpu: Tread 0 :: Base : 595897, L1miss : 5954615, Branch : 7252, D1miss : 1536531, Wait : 0, Misc : 0, Total : 8094295
11713184500: system.cpu: -------------------------------------------------- 
<bad format>11713184500: system.cpu: Total Cycles :: 23400000 
11713184500: system.cpu: Tread 0 :: Base : 597945, L1miss : 5966997, Branch : 7252, D1miss : 1536531, Wait : 0, Misc : 0, Total : 8108725
11763184500: system.cpu: -------------------------------------------------- 
<bad format>11763184500: system.cpu: Total Cycles :: 23500000 
11763184500: system.cpu: Tread 0 :: Base : 597945, L1miss : 5966997, Branch : 7252, D1miss : 1536531, Wait : 0, Misc : 0, Total : 8108725
11813184500: system.cpu: -------------------------------------------------- 
<bad format>11813184500: system.cpu: Total Cycles :: 23600000 
11813184500: system.cpu: Tread 0 :: Base : 599110, L1miss : 5973728, Branch : 7252, D1miss : 1536531, Wait : 0, Misc : 0, Total : 8116621
11863184500: system.cpu: -------------------------------------------------- 
<bad format>11863184500: system.cpu: Total Cycles :: 23700000 
11863184500: system.cpu: Tread 0 :: Base : 600084, L1miss : 5980082, Branch : 7252, D1miss : 1536531, Wait : 0, Misc : 0, Total : 8123949
11913184500: system.cpu: -------------------------------------------------- 
<bad format>11913184500: system.cpu: Total Cycles :: 23800000 
11913184500: system.cpu: Tread 0 :: Base : 601833, L1miss : 5989552, Branch : 7252, D1miss : 1536531, Wait : 0, Misc : 0, Total : 8135168
11963184500: system.cpu: -------------------------------------------------- 
<bad format>11963184500: system.cpu: Total Cycles :: 23900000 
11963184500: system.cpu: Tread 0 :: Base : 603763, L1miss : 6001507, Branch : 7252, D1miss : 1536531, Wait : 0, Misc : 0, Total : 8149053
12013184500: system.cpu: RESET 0 0 0
12013184500: system.cpu: -------------------------------------------------- 
<bad format>12013184500: system.cpu: Total Cycles :: 24000000 
12013184500: system.cpu: Tread 0 :: Base : 603846, L1miss : 6002502, Branch : 7252, D1miss : 1536531, Wait : 0, Misc : 0, Total : 8150131
12063184500: system.cpu: -------------------------------------------------- 
<bad format>12063184500: system.cpu: Total Cycles :: 24100000 
12063184500: system.cpu: Tread 0 :: Base : 605195, L1miss : 6010376, Branch : 7252, D1miss : 1536531, Wait : 0, Misc : 0, Total : 8159354
Duplicating 10436912 bytes
12113184500: system.cpu: -------------------------------------------------- 
<bad format>12113184500: system.cpu: Total Cycles :: 24200000 
12113184500: system.cpu: Tread 0 :: Base : 606995, L1miss : 6025250, Branch : 7630, D1miss : 1536675, Wait : 0, Misc : 0, Total : 8176550
12163184500: system.cpu: -------------------------------------------------- 
<bad format>12163184500: system.cpu: Total Cycles :: 24300000 
12163184500: system.cpu: Tread 0 :: Base : 608637, L1miss : 6035050, Branch : 7630, D1miss : 1536675, Wait : 0, Misc : 0, Total : 8187992
12213184500: system.cpu: -------------------------------------------------- 
<bad format>12213184500: system.cpu: Total Cycles :: 24400000 
12213184500: system.cpu: Tread 0 :: Base : 608839, L1miss : 6037413, Branch : 7630, D1miss : 1536675, Wait : 0, Misc : 0, Total : 8190557
12263184500: system.cpu: -------------------------------------------------- 
<bad format>12263184500: system.cpu: Total Cycles :: 24500000 
12263184500: system.cpu: Tread 0 :: Base : 610651, L1miss : 6048701, Branch : 7630, D1miss : 1536675, Wait : 0, Misc : 0, Total : 8203657
12313184500: system.cpu: -------------------------------------------------- 
<bad format>12313184500: system.cpu: Total Cycles :: 24600000 
12313184500: system.cpu: Tread 0 :: Base : 610651, L1miss : 6048701, Branch : 7630, D1miss : 1536675, Wait : 0, Misc : 0, Total : 8203657
12363184500: system.cpu: -------------------------------------------------- 
<bad format>12363184500: system.cpu: Total Cycles :: 24700000 
12363184500: system.cpu: Tread 0 :: Base : 612408, L1miss : 6060684, Branch : 7630, D1miss : 1536675, Wait : 0, Misc : 0, Total : 8217397
12413184500: system.cpu: -------------------------------------------------- 
<bad format>12413184500: system.cpu: Total Cycles :: 24800000 
12413184500: system.cpu: Tread 0 :: Base : 614105, L1miss : 6070911, Branch : 7630, D1miss : 1536675, Wait : 0, Misc : 0, Total : 8229321
12463184500: system.cpu: -------------------------------------------------- 
<bad format>12463184500: system.cpu: Total Cycles :: 24900000 
12463184500: system.cpu: Tread 0 :: Base : 614272, L1miss : 6072745, Branch : 7630, D1miss : 1536675, Wait : 0, Misc : 0, Total : 8231322
12513184500: system.cpu: RESET 0 0 0
12513184500: system.cpu: -------------------------------------------------- 
<bad format>12513184500: system.cpu: Total Cycles :: 25000000 
12513184500: system.cpu: Tread 0 :: Base : 615930, L1miss : 6083915, Branch : 7630, D1miss : 1536675, Wait : 0, Misc : 0, Total : 8244150
12563184500: system.cpu: -------------------------------------------------- 
<bad format>12563184500: system.cpu: Total Cycles :: 25100000 
12563184500: system.cpu: Tread 0 :: Base : 617111, L1miss : 6091349, Branch : 7630, D1miss : 1536675, Wait : 0, Misc : 0, Total : 8252765
12613184500: system.cpu: -------------------------------------------------- 
<bad format>12613184500: system.cpu: Total Cycles :: 25200000 
12613184500: system.cpu: Tread 0 :: Base : 618817, L1miss : 6102657, Branch : 7630, D1miss : 1536675, Wait : 0, Misc : 0, Total : 8265779
12663184500: system.cpu: -------------------------------------------------- 
<bad format>12663184500: system.cpu: Total Cycles :: 25300000 
12663184500: system.cpu: Tread 0 :: Base : 618817, L1miss : 6102657, Branch : 7630, D1miss : 1536675, Wait : 0, Misc : 0, Total : 8265779
12713184500: system.cpu: -------------------------------------------------- 
<bad format>12713184500: system.cpu: Total Cycles :: 25400000 
12713184500: system.cpu: Tread 0 :: Base : 620499, L1miss : 6114137, Branch : 7630, D1miss : 1536675, Wait : 0, Misc : 0, Total : 8278941
12763184500: system.cpu: -------------------------------------------------- 
<bad format>12763184500: system.cpu: Total Cycles :: 25500000 
12763184500: system.cpu: Tread 0 :: Base : 620746, L1miss : 6115483, Branch : 7630, D1miss : 1536675, Wait : 0, Misc : 0, Total : 8280534
12813184500: system.cpu: -------------------------------------------------- 
<bad format>12813184500: system.cpu: Total Cycles :: 25600000 
12813184500: system.cpu: Tread 0 :: Base : 622238, L1miss : 6125828, Branch : 7630, D1miss : 1536675, Wait : 0, Misc : 0, Total : 8292371
12863184500: system.cpu: -------------------------------------------------- 
<bad format>12863184500: system.cpu: Total Cycles :: 25700000 
12863184500: system.cpu: Tread 0 :: Base : 623987, L1miss : 6137530, Branch : 7630, D1miss : 1536675, Wait : 0, Misc : 0, Total : 8305822
12913184500: system.cpu: -------------------------------------------------- 
<bad format>12913184500: system.cpu: Total Cycles :: 25800000 
12913184500: system.cpu: Tread 0 :: Base : 623987, L1miss : 6137530, Branch : 7630, D1miss : 1536675, Wait : 0, Misc : 0, Total : 8305822
12963184500: system.cpu: -------------------------------------------------- 
<bad format>12963184500: system.cpu: Total Cycles :: 25900000 
12963184500: system.cpu: Tread 0 :: Base : 625669, L1miss : 6149009, Branch : 7630, D1miss : 1536675, Wait : 0, Misc : 0, Total : 8318983
13013184500: system.cpu: RESET 0 0 0
13013184500: system.cpu: -------------------------------------------------- 
<bad format>13013184500: system.cpu: Total Cycles :: 26000000 
13013184500: system.cpu: Tread 0 :: Base : 626104, L1miss : 6151889, Branch : 7630, D1miss : 1536675, Wait : 0, Misc : 0, Total : 8322298
13063184500: system.cpu: -------------------------------------------------- 
<bad format>13063184500: system.cpu: Total Cycles :: 26100000 
13063184500: system.cpu: Tread 0 :: Base : 628378, L1miss : 6166201, Branch : 7630, D1miss : 1536675, Wait : 0, Misc : 0, Total : 8338884
13113184500: system.cpu: -------------------------------------------------- 
<bad format>13113184500: system.cpu: Total Cycles :: 26200000 
13113184500: system.cpu: Tread 0 :: Base : 630285, L1miss : 6178707, Branch : 7630, D1miss : 1536675, Wait : 0, Misc : 0, Total : 8353297
13163184500: system.cpu: -------------------------------------------------- 
<bad format>13163184500: system.cpu: Total Cycles :: 26300000 
13163184500: system.cpu: Tread 0 :: Base : 630285, L1miss : 6178707, Branch : 7630, D1miss : 1536675, Wait : 0, Misc : 0, Total : 8353297
13213184500: system.cpu: -------------------------------------------------- 
<bad format>13213184500: system.cpu: Total Cycles :: 26400000 
13213184500: system.cpu: Tread 0 :: Base : 631848, L1miss : 6190219, Branch : 7630, D1miss : 1536675, Wait : 0, Misc : 0, Total : 8366372
13263184500: system.cpu: -------------------------------------------------- 
<bad format>13263184500: system.cpu: Total Cycles :: 26500000 
13263184500: system.cpu: Tread 0 :: Base : 631848, L1miss : 6190219, Branch : 7630, D1miss : 1536675, Wait : 0, Misc : 0, Total : 8366372
13313184500: system.cpu: -------------------------------------------------- 
<bad format>13313184500: system.cpu: Total Cycles :: 26600000 
13313184500: system.cpu: Tread 0 :: Base : 633628, L1miss : 6201798, Branch : 7630, D1miss : 1536675, Wait : 0, Misc : 0, Total : 8379731
13363184500: system.cpu: -------------------------------------------------- 
<bad format>13363184500: system.cpu: Total Cycles :: 26700000 
13363184500: system.cpu: Tread 0 :: Base : 635526, L1miss : 6214278, Branch : 7630, D1miss : 1536675, Wait : 0, Misc : 0, Total : 8394109
13413184500: system.cpu: -------------------------------------------------- 
<bad format>13413184500: system.cpu: Total Cycles :: 26800000 
13413184500: system.cpu: Tread 0 :: Base : 635526, L1miss : 6214278, Branch : 7630, D1miss : 1536675, Wait : 0, Misc : 0, Total : 8394109
13463184500: system.cpu: -------------------------------------------------- 
<bad format>13463184500: system.cpu: Total Cycles :: 26900000 
13463184500: system.cpu: Tread 0 :: Base : 637089, L1miss : 6225790, Branch : 7630, D1miss : 1536675, Wait : 0, Misc : 0, Total : 8407184
13513184500: system.cpu: RESET 0 0 0
13513184500: system.cpu: -------------------------------------------------- 
<bad format>13513184500: system.cpu: Total Cycles :: 27000000 
13513184500: system.cpu: Tread 0 :: Base : 637089, L1miss : 6225790, Branch : 7630, D1miss : 1536675, Wait : 0, Misc : 0, Total : 8407184
13563184500: system.cpu: -------------------------------------------------- 
<bad format>13563184500: system.cpu: Total Cycles :: 27100000 
13563184500: system.cpu: Tread 0 :: Base : 638849, L1miss : 6236937, Branch : 7630, D1miss : 1536675, Wait : 0, Misc : 0, Total : 8420091
13613184500: system.cpu: -------------------------------------------------- 
<bad format>13613184500: system.cpu: Total Cycles :: 27200000 
13613184500: system.cpu: Tread 0 :: Base : 640756, L1miss : 6249444, Branch : 7630, D1miss : 1536675, Wait : 0, Misc : 0, Total : 8434505
13663184500: system.cpu: -------------------------------------------------- 
<bad format>13663184500: system.cpu: Total Cycles :: 27300000 
13663184500: system.cpu: Tread 0 :: Base : 640756, L1miss : 6249444, Branch : 7630, D1miss : 1536675, Wait : 0, Misc : 0, Total : 8434505
13713184500: system.cpu: -------------------------------------------------- 
<bad format>13713184500: system.cpu: Total Cycles :: 27400000 
13713184500: system.cpu: Tread 0 :: Base : 642319, L1miss : 6260955, Branch : 7630, D1miss : 1536675, Wait : 0, Misc : 0, Total : 8447579
13763184500: system.cpu: -------------------------------------------------- 
<bad format>13763184500: system.cpu: Total Cycles :: 27500000 
13763184500: system.cpu: Tread 0 :: Base : 642319, L1miss : 6260955, Branch : 7630, D1miss : 1536675, Wait : 0, Misc : 0, Total : 8447579
13813184500: system.cpu: -------------------------------------------------- 
<bad format>13813184500: system.cpu: Total Cycles :: 27600000 
13813184500: system.cpu: Tread 0 :: Base : 644099, L1miss : 6272534, Branch : 7630, D1miss : 1536675, Wait : 0, Misc : 0, Total : 8460938
13863184500: system.cpu: -------------------------------------------------- 
<bad format>13863184500: system.cpu: Total Cycles :: 27700000 
13863184500: system.cpu: Tread 0 :: Base : 645997, L1miss : 6285015, Branch : 7630, D1miss : 1536675, Wait : 0, Misc : 0, Total : 8475317
13913184500: system.cpu: -------------------------------------------------- 
<bad format>13913184500: system.cpu: Total Cycles :: 27800000 
13913184500: system.cpu: Tread 0 :: Base : 645997, L1miss : 6285015, Branch : 7630, D1miss : 1536675, Wait : 0, Misc : 0, Total : 8475317
13963184500: system.cpu: -------------------------------------------------- 
<bad format>13963184500: system.cpu: Total Cycles :: 27900000 
13963184500: system.cpu: Tread 0 :: Base : 647560, L1miss : 6296526, Branch : 7630, D1miss : 1536675, Wait : 0, Misc : 0, Total : 8488391
14013184500: system.cpu: RESET 0 0 0
14013184500: system.cpu: -------------------------------------------------- 
<bad format>14013184500: system.cpu: Total Cycles :: 28000000 
14013184500: system.cpu: Tread 0 :: Base : 647560, L1miss : 6296526, Branch : 7630, D1miss : 1536675, Wait : 0, Misc : 0, Total : 8488391
14063184500: system.cpu: -------------------------------------------------- 
<bad format>14063184500: system.cpu: Total Cycles :: 28100000 
14063184500: system.cpu: Tread 0 :: Base : 648819, L1miss : 6304549, Branch : 7630, D1miss : 1536675, Wait : 0, Misc : 0, Total : 8497673
14113184500: system.cpu: -------------------------------------------------- 
<bad format>14113184500: system.cpu: Total Cycles :: 28200000 
14113184500: system.cpu: Tread 0 :: Base : 650727, L1miss : 6317055, Branch : 7630, D1miss : 1536675, Wait : 0, Misc : 0, Total : 8512087
14163184500: system.cpu: -------------------------------------------------- 
<bad format>14163184500: system.cpu: Total Cycles :: 28300000 
14163184500: system.cpu: Tread 0 :: Base : 650727, L1miss : 6317055, Branch : 7630, D1miss : 1536675, Wait : 0, Misc : 0, Total : 8512087
14213184500: system.cpu: -------------------------------------------------- 
<bad format>14213184500: system.cpu: Total Cycles :: 28400000 
14213184500: system.cpu: Tread 0 :: Base : 652290, L1miss : 6328567, Branch : 7630, D1miss : 1536675, Wait : 0, Misc : 0, Total : 8525162
14263184500: system.cpu: -------------------------------------------------- 
<bad format>14263184500: system.cpu: Total Cycles :: 28500000 
[...]
<bad format>547144220000: system.cpu: Total Cycles :: 1094200000 
547144220000: system.cpu: Tread 0 :: Base : 116666093, L1miss : 461372062, Branch : 99421262, D1miss : 25823661, Wait : 0, Misc : 0, Total : 703283078
547194220000: system.cpu: -------------------------------------------------- 
<bad format>547194220000: system.cpu: Total Cycles :: 1094300000 
547194220000: system.cpu: Tread 0 :: Base : 116672740, L1miss : 461415911, Branch : 99421262, D1miss : 25825328, Wait : 0, Misc : 0, Total : 703335241
547244220000: system.cpu: -------------------------------------------------- 
<bad format>547244220000: system.cpu: Total Cycles :: 1094400000 
547244220000: system.cpu: Tread 0 :: Base : 116681741, L1miss : 461462714, Branch : 99428052, D1miss : 25826995, Wait : 0, Misc : 0, Total : 703399502
547294220000: system.cpu: -------------------------------------------------- 
<bad format>547294220000: system.cpu: Total Cycles :: 1094500000 
547294220000: system.cpu: Tread 0 :: Base : 116692091, L1miss : 461513180, Branch : 99454097, D1miss : 25828121, Wait : 0, Misc : 0, Total : 703487489
547344220000: system.cpu: -------------------------------------------------- 
<bad format>547344220000: system.cpu: Total Cycles :: 1094600000 
547344220000: system.cpu: Tread 0 :: Base : 116703739, L1miss : 461580359, Branch : 99470125, D1miss : 25828568, Wait : 0, Misc : 0, Total : 703582791
547394220000: system.cpu: -------------------------------------------------- 
<bad format>547394220000: system.cpu: Total Cycles :: 1094700000 
547394220000: system.cpu: Tread 0 :: Base : 116712448, L1miss : 461629574, Branch : 99477613, D1miss : 25838384, Wait : 0, Misc : 0, Total : 703658019
547444220000: system.cpu: -------------------------------------------------- 
<bad format>547444220000: system.cpu: Total Cycles :: 1094800000 
547444220000: system.cpu: Tread 0 :: Base : 116719458, L1miss : 461673995, Branch : 99477613, D1miss : 25840184, Wait : 0, Misc : 0, Total : 703711250
547494220000: system.cpu: -------------------------------------------------- 
<bad format>547494220000: system.cpu: Total Cycles :: 1094900000 
547494220000: system.cpu: Tread 0 :: Base : 116726109, L1miss : 461718109, Branch : 99477613, D1miss : 25841989, Wait : 0, Misc : 0, Total : 703763820
547544220000: system.cpu: RESET 0 0 0
547544220000: system.cpu: -------------------------------------------------- 
<bad format>547544220000: system.cpu: Total Cycles :: 1095000000 
547544220000: system.cpu: Tread 0 :: Base : 116737085, L1miss : 461766985, Branch : 99495074, D1miss : 25843005, Wait : 0, Misc : 0, Total : 703842149
547594220000: system.cpu: -------------------------------------------------- 
<bad format>547594220000: system.cpu: Total Cycles :: 1095100000 
547594220000: system.cpu: Tread 0 :: Base : 116748139, L1miss : 461825813, Branch : 99517561, D1miss : 25843420, Wait : 0, Misc : 0, Total : 703934933
547644220000: system.cpu: -------------------------------------------------- 
<bad format>547644220000: system.cpu: Total Cycles :: 1095200000 
547644220000: system.cpu: Tread 0 :: Base : 116760269, L1miss : 461892884, Branch : 99536847, D1miss : 25843602, Wait : 0, Misc : 0, Total : 704033602
547694220000: system.cpu: -------------------------------------------------- 
<bad format>547694220000: system.cpu: Total Cycles :: 1095300000 
547694220000: system.cpu: Tread 0 :: Base : 116768047, L1miss : 461935988, Branch : 99539805, D1miss : 25853979, Wait : 0, Misc : 0, Total : 704097819
547744220000: system.cpu: -------------------------------------------------- 
<bad format>547744220000: system.cpu: Total Cycles :: 1095400000 
547744220000: system.cpu: Tread 0 :: Base : 116775220, L1miss : 461980965, Branch : 99539805, D1miss : 25855422, Wait : 0, Misc : 0, Total : 704151412
547794220000: system.cpu: -------------------------------------------------- 
<bad format>547794220000: system.cpu: Total Cycles :: 1095500000 
547794220000: system.cpu: Tread 0 :: Base : 116781932, L1miss : 462023207, Branch : 99539805, D1miss : 25857164, Wait : 0, Misc : 0, Total : 704202108
547844220000: system.cpu: -------------------------------------------------- 
<bad format>547844220000: system.cpu: Total Cycles :: 1095600000 
547844220000: system.cpu: Tread 0 :: Base : 116793526, L1miss : 462069481, Branch : 99565622, D1miss : 25857544, Wait : 0, Misc : 0, Total : 704286173
547894220000: system.cpu: -------------------------------------------------- 
<bad format>547894220000: system.cpu: Total Cycles :: 1095700000 
547894220000: system.cpu: Tread 0 :: Base : 116803308, L1miss : 462133709, Branch : 99581077, D1miss : 25857570, Wait : 0, Misc : 0, Total : 704375664
547944220000: system.cpu: -------------------------------------------------- 
<bad format>547944220000: system.cpu: Total Cycles :: 1095800000 
547944220000: system.cpu: Tread 0 :: Base : 116815093, L1miss : 462196494, Branch : 99595440, D1miss : 25867669, Wait : 0, Misc : 0, Total : 704474696
547994220000: system.cpu: -------------------------------------------------- 
<bad format>547994220000: system.cpu: Total Cycles :: 1095900000 
547994220000: system.cpu: Tread 0 :: Base : 116822053, L1miss : 462240661, Branch : 99595445, D1miss : 25870199, Wait : 0, Misc : 0, Total : 704528358
548044220000: system.cpu: RESET 0 0 0
548044220000: system.cpu: -------------------------------------------------- 
<bad format>548044220000: system.cpu: Total Cycles :: 1096000000 
548044220000: system.cpu: Tread 0 :: Base : 116828858, L1miss : 462285170, Branch : 99595445, D1miss : 25871991, Wait : 0, Misc : 0, Total : 704581464
548094220000: system.cpu: -------------------------------------------------- 
<bad format>548094220000: system.cpu: Total Cycles :: 1096100000 
548094220000: system.cpu: Tread 0 :: Base : 116835824, L1miss : 462329419, Branch : 99595445, D1miss : 25874043, Wait : 0, Misc : 0, Total : 704634731
548144220000: system.cpu: -------------------------------------------------- 
<bad format>548144220000: system.cpu: Total Cycles :: 1096200000 
548144220000: system.cpu: Tread 0 :: Base : 116848172, L1miss : 462371556, Branch : 99627036, D1miss : 25876411, Wait : 0, Misc : 0, Total : 704723175
548194220000: system.cpu: -------------------------------------------------- 
<bad format>548194220000: system.cpu: Total Cycles :: 1096300000 
548194220000: system.cpu: Tread 0 :: Base : 116859404, L1miss : 462439054, Branch : 99649770, D1miss : 25877046, Wait : 0, Misc : 0, Total : 704825274
548244220000: system.cpu: -------------------------------------------------- 
<bad format>548244220000: system.cpu: Total Cycles :: 1096400000 
548244220000: system.cpu: Tread 0 :: Base : 116869827, L1miss : 462493107, Branch : 99667501, D1miss : 25886975, Wait : 0, Misc : 0, Total : 704917410
548294220000: system.cpu: -------------------------------------------------- 
<bad format>548294220000: system.cpu: Total Cycles :: 1096500000 
548294220000: system.cpu: Tread 0 :: Base : 116876843, L1miss : 462537484, Branch : 99667501, D1miss : 25888060, Wait : 0, Misc : 0, Total : 704969888
548344220000: system.cpu: -------------------------------------------------- 
<bad format>548344220000: system.cpu: Total Cycles :: 1096600000 
548344220000: system.cpu: Tread 0 :: Base : 116884101, L1miss : 462583459, Branch : 99667501, D1miss : 25889968, Wait : 0, Misc : 0, Total : 705025029
548394220000: system.cpu: -------------------------------------------------- 
<bad format>548394220000: system.cpu: Total Cycles :: 1096700000 
548394220000: system.cpu: Tread 0 :: Base : 116891933, L1miss : 462629198, Branch : 99671032, D1miss : 25891534, Wait : 0, Misc : 0, Total : 705083697
548444220000: system.cpu: -------------------------------------------------- 
<bad format>548444220000: system.cpu: Total Cycles :: 1096800000 
548444220000: system.cpu: Tread 0 :: Base : 116904039, L1miss : 462681709, Branch : 99699580, D1miss : 25892543, Wait : 0, Misc : 0, Total : 705177871
548494220000: system.cpu: -------------------------------------------------- 
<bad format>548494220000: system.cpu: Total Cycles :: 1096900000 
548494220000: system.cpu: Tread 0 :: Base : 116915816, L1miss : 462752658, Branch : 99716306, D1miss : 25892906, Wait : 0, Misc : 0, Total : 705277686
548544220000: system.cpu: RESET 0 0 0
548544220000: system.cpu: -------------------------------------------------- 
<bad format>548544220000: system.cpu: Total Cycles :: 1097000000 
548544220000: system.cpu: Tread 0 :: Base : 116925286, L1miss : 462805899, Branch : 99724343, D1miss : 25903564, Wait : 0, Misc : 0, Total : 705359092
548594220000: system.cpu: -------------------------------------------------- 
<bad format>548594220000: system.cpu: Total Cycles :: 1097100000 
548594220000: system.cpu: Tread 0 :: Base : 116932533, L1miss : 462852296, Branch : 99724343, D1miss : 25905265, Wait : 0, Misc : 0, Total : 705414437
548644220000: system.cpu: -------------------------------------------------- 
<bad format>548644220000: system.cpu: Total Cycles :: 1097200000 
548644220000: system.cpu: Tread 0 :: Base : 116939663, L1miss : 462898732, Branch : 99724343, D1miss : 25907104, Wait : 0, Misc : 0, Total : 705469842
548694220000: system.cpu: -------------------------------------------------- 
<bad format>548694220000: system.cpu: Total Cycles :: 1097300000 
548694220000: system.cpu: Tread 0 :: Base : 116949758, L1miss : 462943146, Branch : 99741578, D1miss : 25908886, Wait : 0, Misc : 0, Total : 705543368
548744220000: system.cpu: -------------------------------------------------- 
<bad format>548744220000: system.cpu: Total Cycles :: 1097400000 
548744220000: system.cpu: Tread 0 :: Base : 116959502, L1miss : 463002841, Branch : 99760110, D1miss : 25909247, Wait : 0, Misc : 0, Total : 705631700
548794220000: system.cpu: -------------------------------------------------- 
<bad format>548794220000: system.cpu: Total Cycles :: 1097500000 
548794220000: system.cpu: Tread 0 :: Base : 116969901, L1miss : 463069004, Branch : 99785094, D1miss : 25909697, Wait : 0, Misc : 0, Total : 705733696
548844220000: system.cpu: -------------------------------------------------- 
<bad format>548844220000: system.cpu: Total Cycles :: 1097600000 
548844220000: system.cpu: Tread 0 :: Base : 116976643, L1miss : 463107944, Branch : 99785779, D1miss : 25922303, Wait : 0, Misc : 0, Total : 705792669
548894220000: system.cpu: -------------------------------------------------- 
<bad format>548894220000: system.cpu: Total Cycles :: 1097700000 
548894220000: system.cpu: Tread 0 :: Base : 116983636, L1miss : 463152680, Branch : 99785779, D1miss : 25923921, Wait : 0, Misc : 0, Total : 705846016
548944220000: system.cpu: -------------------------------------------------- 
<bad format>548944220000: system.cpu: Total Cycles :: 1097800000 
548944220000: system.cpu: Tread 0 :: Base : 116990467, L1miss : 463195283, Branch : 99785779, D1miss : 25925864, Wait : 0, Misc : 0, Total : 705897393
548994220000: system.cpu: -------------------------------------------------- 
<bad format>548994220000: system.cpu: Total Cycles :: 1097900000 
548994220000: system.cpu: Tread 0 :: Base : 117001978, L1miss : 463238283, Branch : 99812609, D1miss : 25926997, Wait : 0, Misc : 0, Total : 705979867
549044220000: system.cpu: RESET 0 0 0
549044220000: system.cpu: -------------------------------------------------- 
<bad format>549044220000: system.cpu: Total Cycles :: 1098000000 
549044220000: system.cpu: Tread 0 :: Base : 117011535, L1miss : 463305057, Branch : 99830886, D1miss : 25927351, Wait : 0, Misc : 0, Total : 706074829
549094220000: system.cpu: -------------------------------------------------- 
<bad format>549094220000: system.cpu: Total Cycles :: 1098100000 
549094220000: system.cpu: Tread 0 :: Base : 117021114, L1miss : 463356678, Branch : 99847677, D1miss : 25939121, Wait : 0, Misc : 0, Total : 706164590
549144220000: system.cpu: -------------------------------------------------- 
<bad format>549144220000: system.cpu: Total Cycles :: 1098200000 
549144220000: system.cpu: Tread 0 :: Base : 117028348, L1miss : 463401928, Branch : 99847677, D1miss : 25940168, Wait : 0, Misc : 0, Total : 706218121
549194220000: system.cpu: -------------------------------------------------- 
<bad format>549194220000: system.cpu: Total Cycles :: 1098300000 
549194220000: system.cpu: Tread 0 :: Base : 117035332, L1miss : 463445021, Branch : 99847677, D1miss : 25941403, Wait : 0, Misc : 0, Total : 706269433
549244220000: system.cpu: -------------------------------------------------- 
<bad format>549244220000: system.cpu: Total Cycles :: 1098400000 
549244220000: system.cpu: Tread 0 :: Base : 117042169, L1miss : 463488549, Branch : 99847861, D1miss : 25942905, Wait : 0, Misc : 0, Total : 706321484
549294220000: system.cpu: -------------------------------------------------- 
<bad format>549294220000: system.cpu: Total Cycles :: 1098500000 
549294220000: system.cpu: Tread 0 :: Base : 117054284, L1miss : 463535895, Branch : 99878534, D1miss : 25944463, Wait : 0, Misc : 0, Total : 706413176
549344220000: system.cpu: -------------------------------------------------- 
<bad format>549344220000: system.cpu: Total Cycles :: 1098600000 
549344220000: system.cpu: Tread 0 :: Base : 117064778, L1miss : 463601292, Branch : 99900520, D1miss : 25944859, Wait : 0, Misc : 0, Total : 706511449
549394220000: system.cpu: -------------------------------------------------- 
<bad format>549394220000: system.cpu: Total Cycles :: 1098700000 
549394220000: system.cpu: Tread 0 :: Base : 117074656, L1miss : 463652176, Branch : 99915031, D1miss : 25954772, Wait : 0, Misc : 0, Total : 706596635
549444220000: system.cpu: -------------------------------------------------- 
<bad format>549444220000: system.cpu: Total Cycles :: 1098800000 
549444220000: system.cpu: Tread 0 :: Base : 117081522, L1miss : 463694779, Branch : 99915031, D1miss : 25956305, Wait : 0, Misc : 0, Total : 706647637
549494220000: system.cpu: -------------------------------------------------- 
<bad format>549494220000: system.cpu: Total Cycles :: 1098900000 
549494220000: system.cpu: Tread 0 :: Base : 117088682, L1miss : 463740428, Branch : 99915031, D1miss : 25958268, Wait : 0, Misc : 0, Total : 706702409
549544220000: system.cpu: RESET 0 0 0
549544220000: system.cpu: -------------------------------------------------- 
<bad format>549544220000: system.cpu: Total Cycles :: 1099000000 
549544220000: system.cpu: Tread 0 :: Base : 117097844, L1miss : 463786710, Branch : 99922472, D1miss : 25960443, Wait : 0, Misc : 0, Total : 706767469
549594220000: system.cpu: -------------------------------------------------- 
<bad format>549594220000: system.cpu: Total Cycles :: 1099100000 
549594220000: system.cpu: Tread 0 :: Base : 117109770, L1miss : 463839887, Branch : 99948380, D1miss : 25963045, Wait : 0, Misc : 0, Total : 706861082
549644220000: system.cpu: -------------------------------------------------- 
<bad format>549644220000: system.cpu: Total Cycles :: 1099200000 
549644220000: system.cpu: Tread 0 :: Base : 117121883, L1miss : 463906680, Branch : 99966793, D1miss : 25963515, Wait : 0, Misc : 0, Total : 706958871
549694220000: system.cpu: -------------------------------------------------- 
<bad format>549694220000: system.cpu: Total Cycles :: 1099300000 
549694220000: system.cpu: Tread 0 :: Base : 117130270, L1miss : 463953403, Branch : 99975176, D1miss : 25973960, Wait : 0, Misc : 0, Total : 707032809
549744220000: system.cpu: -------------------------------------------------- 
<bad format>549744220000: system.cpu: Total Cycles :: 1099400000 
549744220000: system.cpu: Tread 0 :: Base : 117137366, L1miss : 463998212, Branch : 99975176, D1miss : 25975246, Wait : 0, Misc : 0, Total : 707086000
549794220000: system.cpu: -------------------------------------------------- 
<bad format>549794220000: system.cpu: Total Cycles :: 1099500000 
549794220000: system.cpu: Tread 0 :: Base : 117144208, L1miss : 464042122, Branch : 99975176, D1miss : 25976762, Wait : 0, Misc : 0, Total : 707138268
549844220000: system.cpu: -------------------------------------------------- 
<bad format>549844220000: system.cpu: Total Cycles :: 1099600000 
549844220000: system.cpu: Tread 0 :: Base : 117154962, L1miss : 464087962, Branch : 99991946, D1miss : 25978643, Wait : 0, Misc : 0, Total : 707213513
549894220000: system.cpu: -------------------------------------------------- 
<bad format>549894220000: system.cpu: Total Cycles :: 1099700000 
549894220000: system.cpu: Tread 0 :: Base : 117164958, L1miss : 464149597, Branch : 100008740, D1miss : 25979021, Wait : 0, Misc : 0, Total : 707302316
549944220000: system.cpu: -------------------------------------------------- 
<bad format>549944220000: system.cpu: Total Cycles :: 1099800000 
549944220000: system.cpu: Tread 0 :: Base : 117175504, L1miss : 464213170, Branch : 100027023, D1miss : 25979560, Wait : 0, Misc : 0, Total : 707395257
549994220000: system.cpu: -------------------------------------------------- 
<bad format>549994220000: system.cpu: Total Cycles :: 1099900000 
549994220000: system.cpu: Tread 0 :: Base : 117182584, L1miss : 464253261, Branch : 100028393, D1miss : 25991534, Wait : 0, Misc : 0, Total : 707455772
550044220000: system.cpu: RESET 0 0 0
550044220000: system.cpu: -------------------------------------------------- 
<bad format>550044220000: system.cpu: Total Cycles :: 1100000000 
550044220000: system.cpu: Tread 0 :: Base : 117189329, L1miss : 464295363, Branch : 100028393, D1miss : 25993218, Wait : 0, Misc : 0, Total : 707506303
550094220000: system.cpu: -------------------------------------------------- 
<bad format>550094220000: system.cpu: Total Cycles :: 1100100000 
550094220000: system.cpu: Tread 0 :: Base : 117196377, L1miss : 464339831, Branch : 100028393, D1miss : 25994790, Wait : 0, Misc : 0, Total : 707559391
550144220000: system.cpu: -------------------------------------------------- 
<bad format>550144220000: system.cpu: Total Cycles :: 1100200000 
550144220000: system.cpu: Tread 0 :: Base : 117206983, L1miss : 464385437, Branch : 100045430, D1miss : 25995918, Wait : 0, Misc : 0, Total : 707633768
550194220000: system.cpu: -------------------------------------------------- 
<bad format>550194220000: system.cpu: Total Cycles :: 1100300000 
550194220000: system.cpu: Tread 0 :: Base : 117216189, L1miss : 464454621, Branch : 100061068, D1miss : 25995918, Wait : 0, Misc : 0, Total : 707727796
550244220000: system.cpu: -------------------------------------------------- 
<bad format>550244220000: system.cpu: Total Cycles :: 1100400000 
550244220000: system.cpu: Tread 0 :: Base : 117225747, L1miss : 464513356, Branch : 100073255, D1miss : 26006687, Wait : 0, Misc : 0, Total : 707819045
550294220000: system.cpu: -------------------------------------------------- 
<bad format>550294220000: system.cpu: Total Cycles :: 1100500000 
550294220000: system.cpu: Tread 0 :: Base : 117233052, L1miss : 464559155, Branch : 100073255, D1miss : 26008106, Wait : 0, Misc : 0, Total : 707873568
550344220000: system.cpu: -------------------------------------------------- 
<bad format>550344220000: system.cpu: Total Cycles :: 1100600000 
550344220000: system.cpu: Tread 0 :: Base : 117239892, L1miss : 464603582, Branch : 100073255, D1miss : 26009506, Wait : 0, Misc : 0, Total : 707926235
550394220000: system.cpu: -------------------------------------------------- 
<bad format>550394220000: system.cpu: Total Cycles :: 1100700000 
550394220000: system.cpu: Tread 0 :: Base : 117247218, L1miss : 464649043, Branch : 100073255, D1miss : 26010859, Wait : 0, Misc : 0, Total : 707980375
550444220000: system.cpu: -------------------------------------------------- 
<bad format>550444220000: system.cpu: Total Cycles :: 1100800000 
550444220000: system.cpu: Tread 0 :: Base : 117257428, L1miss : 464695714, Branch : 100097752, D1miss : 26011399, Wait : 0, Misc : 0, Total : 708062293
